REMARK  Name = 1A4G-ZMR.pdb
REMARK  10 active torsions:
REMARK  status: ('A' for Active; 'I' for Inactive)
REMARK    1  A    between atoms: NE_1  and  C4_10
REMARK    2  A    between atoms: C1_5  and  O1B_7
REMARK    3  A    between atoms: C1_5  and  C2_8
REMARK    4  A    between atoms: C5_11  and  N5_12
REMARK    5  A    between atoms: C6_13  and  C7_15
REMARK    6  A    between atoms: C7_15  and  O7_16
REMARK    7  A    between atoms: C7_15  and  C8_17
REMARK    8  A    between atoms: C8_17  and  O8_18
REMARK    9  A    between atoms: C8_17  and  C9_19
REMARK   10  A    between atoms: C9_19  and  O9_20
REMARK                            x       y       z     vdW  Elec       q    Type
REMARK                         _______ _______ _______ _____ _____    ______ ____
ROOT
ATOM      1  C2  ZMR A 466      -2.330  57.401  -6.798  0.00  0.00    +0.000 C 
ATOM      2  C3  ZMR A 466      -1.468  56.385  -6.967  0.00  0.00    +0.000 C 
ATOM      3  C4  ZMR A 466      -1.502  55.541  -8.205  0.00  0.00    +0.000 C 
ATOM      4  C5  ZMR A 466      -2.290  56.169  -9.297  0.00  0.00    +0.000 C 
ATOM      5  C6  ZMR A 466      -3.594  56.764  -8.686  0.00  0.00    +0.000 C 
ATOM      6  O6  ZMR A 466      -3.271  57.709  -7.670  0.00  0.00    +0.000 OA
ENDROOT
BRANCH   3   7
ATOM      7  NE  ZMR A 466      -0.189  55.181  -8.695  0.00  0.00    +0.000 N 
ATOM      8  CZ  ZMR A 466       0.043  54.030  -9.320  0.00  0.00    +0.000 C 
ATOM      9  NH1 ZMR A 466      -0.896  53.081  -9.402  0.00  0.00    +0.000 NA
ATOM     10  NH2 ZMR A 466       1.216  53.867  -9.926  0.00  0.00    +0.000 N 
ATOM     11  H01 ZMR A 466      -1.794  53.220  -8.962  0.00  0.00    +0.000 HD
ATOM     12  H02 ZMR A 466       1.912  54.597  -9.883  0.00  0.00    +0.000 HD
ATOM     13  H03 ZMR A 466       1.410  53.013 -10.429  0.00  0.00    +0.000 HD
ATOM     14  H05 ZMR A 466       0.577  55.825  -8.558  0.00  0.00    +0.000 HD
ENDBRANCH   3   7
BRANCH   4  15
ATOM     15  N5  ZMR A 466      -2.654  55.178 -10.299  0.00  0.00    +0.000 N 
ATOM     16  C10 ZMR A 466      -2.114  55.123 -11.520  0.00  0.00    +0.000 C 
ATOM     17  O10 ZMR A 466      -1.380  55.977 -11.975  0.00  0.00    +0.000 OA
ATOM     18  C11 ZMR A 466      -2.468  53.883 -12.316  0.00  0.00    +0.000 C 
ATOM     19  H06 ZMR A 466      -3.355  54.492 -10.057  0.00  0.00    +0.000 HD
ENDBRANCH   4  15
BRANCH   1  20
ATOM     20  C1  ZMR A 466      -2.250  58.242  -5.591  0.00  0.00    +0.000 C 
ATOM     21  O1A ZMR A 466      -3.172  59.198  -5.452  0.00  0.00    +0.000 OA
BRANCH  20  22
ATOM     22  O1B ZMR A 466      -1.372  58.041  -4.813  0.00  0.00    +0.000 OA
ATOM     23  H04 ZMR A 466      -1.078  57.131  -4.890  0.00  0.00    +0.000 HD
ENDBRANCH  20  22
ENDBRANCH   1  20
BRANCH   5  24
ATOM     24  C7  ZMR A 466      -4.646  57.312  -9.638  0.00  0.00    +0.000 C 
BRANCH  24  25
ATOM     25  O7  ZMR A 466      -3.818  57.892 -10.082  0.00  0.00    +0.000 OA
ATOM     26  H07 ZMR A 466      -3.617  58.644  -9.521  0.00  0.00    +0.000 HD
ENDBRANCH  24  25
BRANCH  24  27
ATOM     27  C8  ZMR A 466      -5.827  57.857  -9.022  0.00  0.00    +0.000 C 
BRANCH  27  28
ATOM     28  O8  ZMR A 466      -6.401  56.698  -8.411  0.00  0.00    +0.000 OA
ATOM     29  H08 ZMR A 466      -6.480  56.840  -7.465  0.00  0.00    +0.000 HD
ENDBRANCH  27  28
BRANCH  27  30
ATOM     30  C9  ZMR A 466      -6.836  58.483  -9.983  0.00  0.00    +0.000 C 
BRANCH  30  31
ATOM     31  O9  ZMR A 466      -7.439  57.473 -10.791  0.00  0.00    +0.000 OA
ATOM     32  H09 ZMR A 466      -7.638  56.706 -10.249  0.00  0.00    +0.000 HD
ENDBRANCH  30  31
ENDBRANCH  27  30
ENDBRANCH  24  27
ENDBRANCH   5  24
TORSDOF 10
