REMARK VINA RESULT:    -7.990      0.000      0.000
REMARK INTER + INTRA:         -13.267
REMARK INTER:                 -11.727
REMARK INTRA:                  -1.540
REMARK UNBOUND:                -1.540
REMARK  Name = 1A4G-ZMR.pdb
REMARK  10 active torsions:
REMARK  status: ('A' for Active; 'I' for Inactive)
REMARK    1  A    between atoms: NE_1  and  C4_10
REMARK    2  A    between atoms: C1_5  and  O1B_7
REMARK    3  A    between atoms: C1_5  and  C2_8
REMARK    4  A    between atoms: C5_11  and  N5_12
REMARK    5  A    between atoms: C6_13  and  C7_15
REMARK    6  A    between atoms: C7_15  and  O7_16
REMARK    7  A    between atoms: C7_15  and  C8_17
REMARK    8  A    between atoms: C8_17  and  O8_18
REMARK    9  A    between atoms: C8_17  and  C9_19
REMARK   10  A    between atoms: C9_19  and  O9_20
REMARK                            x       y       z     vdW  Elec       q    Type
REMARK                         _______ _______ _______ _____ _____    ______ ____
ROOT
ATOM      1  C2  ZMR A 466      -2.109  57.460  -7.023  0.00  0.00    +0.000 C 
ATOM      2  C3  ZMR A 466      -1.231  56.454  -7.164  0.00  0.00    +0.000 C 
ATOM      3  C4  ZMR A 466      -1.328  55.499  -8.315  0.00  0.00    +0.000 C 
ATOM      4  C5  ZMR A 466      -2.211  56.006  -9.398  0.00  0.00    +0.000 C 
ATOM      5  C6  ZMR A 466      -3.485  56.624  -8.748  0.00  0.00    +0.000 C 
ATOM      6  O6  ZMR A 466      -3.119  57.665  -7.847  0.00  0.00    +0.000 OA
ENDROOT
BRANCH   3   7
ATOM      7  NE  ZMR A 466      -0.043  55.127  -8.867  0.00  0.00    +0.000 N 
ATOM      8  CZ  ZMR A 466       0.222  53.888  -9.271  0.00  0.00    +0.000 C 
ATOM      9  NH1 ZMR A 466      -0.639  52.887  -9.057  0.00  0.00    +0.000 NA
ATOM     10  NH2 ZMR A 466       1.340  53.675  -9.959  0.00  0.00    +0.000 N 
ATOM     11  H01 ZMR A 466      -1.498  53.058  -8.556  0.00  0.00    +0.000 HD
ATOM     12  H02 ZMR A 466       1.974  54.440 -10.141  0.00  0.00    +0.000 HD
ATOM     13  H03 ZMR A 466       1.555  52.749 -10.300  0.00  0.00    +0.000 HD
ATOM     14  H05 ZMR A 466       0.677  55.831  -8.947  0.00  0.00    +0.000 HD
ENDBRANCH   3   7
BRANCH   4  15
ATOM     15  N5  ZMR A 466      -2.615  54.919 -10.277  0.00  0.00    +0.000 N 
ATOM     16  C10 ZMR A 466      -2.422  54.922 -11.599  0.00  0.00    +0.000 C 
ATOM     17  O10 ZMR A 466      -2.031  55.887 -12.224  0.00  0.00    +0.000 OA
ATOM     18  C11 ZMR A 466      -2.711  53.603 -12.286  0.00  0.00    +0.000 C 
ATOM     19  H06 ZMR A 466      -3.068  54.116  -9.864  0.00  0.00    +0.000 HD
ENDBRANCH   4  15
BRANCH   1  20
ATOM     20  C1  ZMR A 466      -1.968  58.410  -5.905  0.00  0.00    +0.000 C 
ATOM     21  O1A ZMR A 466      -0.859  59.154  -5.874  0.00  0.00    +0.000 OA
BRANCH  20  22
ATOM     22  O1B ZMR A 466      -2.831  58.460  -5.088  0.00  0.00    +0.000 OA
ATOM     23  H04 ZMR A 466      -2.972  59.373  -4.827  0.00  0.00    +0.000 HD
ENDBRANCH  20  22
ENDBRANCH   1  20
BRANCH   5  24
ATOM     24  C7  ZMR A 466      -4.618  57.057  -9.664  0.00  0.00    +0.000 C 
BRANCH  24  25
ATOM     25  O7  ZMR A 466      -3.828  57.527 -10.277  0.00  0.00    +0.000 OA
ATOM     26  H07 ZMR A 466      -3.713  57.027 -11.088  0.00  0.00    +0.000 HD
ENDBRANCH  24  25
BRANCH  24  27
ATOM     27  C8  ZMR A 466      -5.714  57.739  -9.028  0.00  0.00    +0.000 C 
BRANCH  27  28
ATOM     28  O8  ZMR A 466      -6.130  56.780  -8.052  0.00  0.00    +0.000 OA
ATOM     29  H08 ZMR A 466      -5.695  56.965  -7.216  0.00  0.00    +0.000 HD
ENDBRANCH  27  28
BRANCH  27  30
ATOM     30  C9  ZMR A 466      -6.889  58.083  -9.942  0.00  0.00    +0.000 C 
BRANCH  30  31
ATOM     31  O9  ZMR A 466      -6.950  57.165 -11.033  0.00  0.00    +0.000 OA
ATOM     32  H09 ZMR A 466      -6.059  56.936 -11.308  0.00  0.00    +0.000 HD
ENDBRANCH  30  31
ENDBRANCH  27  30
ENDBRANCH  24  27
ENDBRANCH   5  24
TORSDOF 10
ENDMDL
MODEL 2
