MODEL 1
REMARK VINA RESULT:    -5.075      0.000      0.000
REMARK INTER + INTRA:          -8.987
REMARK INTER:                  -7.448
REMARK INTRA:                  -1.539
REMARK UNBOUND:                -1.539
REMARK  Name = 1A4G-ZMR.pdb
REMARK  10 active torsions:
REMARK  status: ('A' for Active; 'I' for Inactive)
REMARK    1  A    between atoms: NE_1  and  C4_10
REMARK    2  A    between atoms: C1_5  and  O1B_7
REMARK    3  A    between atoms: C1_5  and  C2_8
REMARK    4  A    between atoms: C5_11  and  N5_12
REMARK    5  A    between atoms: C6_13  and  C7_15
REMARK    6  A    between atoms: C7_15  and  O7_16
REMARK    7  A    between atoms: C7_15  and  C8_17
REMARK    8  A    between atoms: C8_17  and  O8_18
REMARK    9  A    between atoms: C8_17  and  C9_19
REMARK   10  A    between atoms: C9_19  and  O9_20
REMARK                            x       y       z     vdW  Elec       q    Type
REMARK                         _______ _______ _______ _____ _____    ______ ____
ROOT
ATOM      1  C2  ZMR A 466      17.860  56.688   9.267  0.00  0.00    +0.000 C 
ATOM      2  C3  ZMR A 466      17.094  57.538   9.969  0.00  0.00    +0.000 C 
ATOM      3  C4  ZMR A 466      17.261  57.687  11.451  0.00  0.00    +0.000 C 
ATOM      4  C5  ZMR A 466      18.541  57.107  11.937  0.00  0.00    +0.000 C 
ATOM      5  C6  ZMR A 466      18.762  55.737  11.229  0.00  0.00    +0.000 C 
ATOM      6  O6  ZMR A 466      18.776  55.912   9.816  0.00  0.00    +0.000 OA
ENDROOT
BRANCH   3   7
ATOM      7  NE  ZMR A 466      17.138  59.053  11.912  0.00  0.00    +0.000 N 
ATOM      8  CZ  ZMR A 466      16.327  59.393  12.910  0.00  0.00    +0.000 C 
ATOM      9  NH1 ZMR A 466      15.475  58.511  13.446  0.00  0.00    +0.000 NA
ATOM     10  NH2 ZMR A 466      16.428  60.619  13.415  0.00  0.00    +0.000 N 
ATOM     11  H01 ZMR A 466      15.420  57.573  13.076  0.00  0.00    +0.000 HD
ATOM     12  H02 ZMR A 466      17.091  61.273  13.024  0.00  0.00    +0.000 HD
ATOM     13  H03 ZMR A 466      15.842  60.897  14.189  0.00  0.00    +0.000 HD
ATOM     14  H05 ZMR A 466      17.685  59.772  11.462  0.00  0.00    +0.000 HD
ENDBRANCH   3   7
BRANCH   4  15
ATOM     15  N5  ZMR A 466      18.488  56.887  13.375  0.00  0.00    +0.000 N 
ATOM     16  C10 ZMR A 466      19.285  57.507  14.250  0.00  0.00    +0.000 C 
ATOM     17  O10 ZMR A 466      20.232  58.198  13.933  0.00  0.00    +0.000 OA
ATOM     18  C11 ZMR A 466      18.910  57.303  15.705  0.00  0.00    +0.000 C 
ATOM     19  H06 ZMR A 466      17.810  56.229  13.731  0.00  0.00    +0.000 HD
ENDBRANCH   4  15
BRANCH   1  20
ATOM     20  C1  ZMR A 466      17.704  56.590   7.806  0.00  0.00    +0.000 C 
ATOM     21  O1A ZMR A 466      17.054  57.583   7.194  0.00  0.00    +0.000 OA
BRANCH  20  22
ATOM     22  O1B ZMR A 466      18.148  55.637   7.247  0.00  0.00    +0.000 OA
ATOM     23  H04 ZMR A 466      17.707  55.527   6.402  0.00  0.00    +0.000 HD
ENDBRANCH  20  22
ENDBRANCH   1  20
BRANCH   5  24
ATOM     24  C7  ZMR A 466      19.924  54.872  11.692  0.00  0.00    +0.000 C 
BRANCH  24  25
ATOM     25  O7  ZMR A 466      20.508  55.390  10.911  0.00  0.00    +0.000 OA
ATOM     26  H07 ZMR A 466      21.212  55.897  11.321  0.00  0.00    +0.000 HD
ENDBRANCH  24  25
BRANCH  24  27
ATOM     27  C8  ZMR A 466      19.667  53.457  11.758  0.00  0.00    +0.000 C 
BRANCH  27  28
ATOM     28  O8  ZMR A 466      18.359  53.370  11.185  0.00  0.00    +0.000 OA
ATOM     29  H08 ZMR A 466      18.419  53.474  10.233  0.00  0.00    +0.000 HD
ENDBRANCH  27  28
BRANCH  27  30
ATOM     30  C9  ZMR A 466      19.651  52.861  13.164  0.00  0.00    +0.000 C 
BRANCH  30  31
ATOM     31  O9  ZMR A 466      19.023  53.762  14.075  0.00  0.00    +0.000 OA
ATOM     32  H09 ZMR A 466      19.370  54.647  13.940  0.00  0.00    +0.000 HD
ENDBRANCH  30  31
ENDBRANCH  27  30
ENDBRANCH  24  27
ENDBRANCH   5  24
TORSDOF 10
ENDMDL
MODEL 2
REMARK VINA RESULT:    -4.710      9.471     10.973
REMARK INTER + INTRA:          -8.451
REMARK INTER:                  -6.792
REMARK INTRA:                  -1.659
REMARK UNBOUND:                -1.539
REMARK  Name = 1A4G-ZMR.pdb
REMARK  10 active torsions:
REMARK  status: ('A' for Active; 'I' for Inactive)
REMARK    1  A    between atoms: NE_1  and  C4_10
REMARK    2  A    between atoms: C1_5  and  O1B_7
REMARK    3  A    between atoms: C1_5  and  C2_8
REMARK    4  A    between atoms: C5_11  and  N5_12
REMARK    5  A    between atoms: C6_13  and  C7_15
REMARK    6  A    between atoms: C7_15  and  O7_16
REMARK    7  A    between atoms: C7_15  and  C8_17
REMARK    8  A    between atoms: C8_17  and  O8_18
REMARK    9  A    between atoms: C8_17  and  C9_19
REMARK   10  A    between atoms: C9_19  and  O9_20
REMARK                            x       y       z     vdW  Elec       q    Type
REMARK                         _______ _______ _______ _____ _____    ______ ____
ROOT
ATOM      1  C2  ZMR A 466      10.233  47.517  13.552  0.00  0.00    +0.000 C 
ATOM      2  C3  ZMR A 466       9.819  48.186  14.641  0.00  0.00    +0.000 C 
ATOM      3  C4  ZMR A 466      10.377  49.536  14.977  0.00  0.00    +0.000 C 
ATOM      4  C5  ZMR A 466      11.099  50.151  13.833  0.00  0.00    +0.000 C 
ATOM      5  C6  ZMR A 466      11.977  49.056  13.157  0.00  0.00    +0.000 C 
ATOM      6  O6  ZMR A 466      11.162  47.969  12.731  0.00  0.00    +0.000 OA
ENDROOT
BRANCH   3   7
ATOM      7  NE  ZMR A 466       9.386  50.461  15.484  0.00  0.00    +0.000 N 
ATOM      8  CZ  ZMR A 466       9.330  50.805  16.767  0.00  0.00    +0.000 C 
ATOM      9  NH1 ZMR A 466      10.096  50.204  17.683  0.00  0.00    +0.000 NA
ATOM     10  NH2 ZMR A 466       8.537  51.816  17.114  0.00  0.00    +0.000 N 
ATOM     11  H01 ZMR A 466      10.715  49.455  17.411  0.00  0.00    +0.000 HD
ATOM     12  H02 ZMR A 466       7.979  52.283  16.414  0.00  0.00    +0.000 HD
ATOM     13  H03 ZMR A 466       8.493  52.115  18.078  0.00  0.00    +0.000 HD
ATOM     14  H05 ZMR A 466       8.715  50.858  14.841  0.00  0.00    +0.000 HD
ENDBRANCH   3   7
BRANCH   4  15
ATOM     15  N5  ZMR A 466      11.965  51.226  14.294  0.00  0.00    +0.000 N 
ATOM     16  C10 ZMR A 466      11.628  52.518  14.260  0.00  0.00    +0.000 C 
ATOM     17  O10 ZMR A 466      10.635  52.945  13.706  0.00  0.00    +0.000 OA
ATOM     18  C11 ZMR A 466      12.578  53.442  14.995  0.00  0.00    +0.000 C 
ATOM     19  H06 ZMR A 466      12.873  50.980  14.662  0.00  0.00    +0.000 HD
ENDBRANCH   4  15
BRANCH   1  20
ATOM     20  C1  ZMR A 466       9.639  46.210  13.220  0.00  0.00    +0.000 C 
ATOM     21  O1A ZMR A 466       8.437  45.939  13.734  0.00  0.00    +0.000 OA
BRANCH  20  22
ATOM     22  O1B ZMR A 466      10.256  45.463  12.529  0.00  0.00    +0.000 OA
ATOM     23  H04 ZMR A 466       9.793  44.625  12.471  0.00  0.00    +0.000 HD
ENDBRANCH  20  22
ENDBRANCH   1  20
BRANCH   5  24
ATOM     24  C7  ZMR A 466      12.942  49.487  12.063  0.00  0.00    +0.000 C 
BRANCH  24  25
ATOM     25  O7  ZMR A 466      12.119  50.131  11.710  0.00  0.00    +0.000 OA
ATOM     26  H07 ZMR A 466      11.857  49.861  10.827  0.00  0.00    +0.000 HD
ENDBRANCH  24  25
BRANCH  24  27
ATOM     27  C8  ZMR A 466      13.564  48.422  11.320  0.00  0.00    +0.000 C 
BRANCH  27  28
ATOM     28  O8  ZMR A 466      14.938  48.819  11.331  0.00  0.00    +0.000 OA
ATOM     29  H08 ZMR A 466      15.384  48.408  12.075  0.00  0.00    +0.000 HD
ENDBRANCH  27  28
BRANCH  27  30
ATOM     30  C9  ZMR A 466      13.087  48.268   9.877  0.00  0.00    +0.000 C 
BRANCH  30  31
ATOM     31  O9  ZMR A 466      11.718  47.863   9.851  0.00  0.00    +0.000 OA
ATOM     32  H09 ZMR A 466      11.209  48.420  10.443  0.00  0.00    +0.000 HD
ENDBRANCH  30  31
ENDBRANCH  27  30
ENDBRANCH  24  27
ENDBRANCH   5  24
TORSDOF 10
ENDMDL
MODEL 3
REMARK VINA RESULT:    -4.665      9.337     10.576
REMARK INTER + INTRA:          -8.385
REMARK INTER:                  -6.847
REMARK INTRA:                  -1.537
REMARK UNBOUND:                -1.539
REMARK  Name = 1A4G-ZMR.pdb
REMARK  10 active torsions:
REMARK  status: ('A' for Active; 'I' for Inactive)
REMARK    1  A    between atoms: NE_1  and  C4_10
REMARK    2  A    between atoms: C1_5  and  O1B_7
REMARK    3  A    between atoms: C1_5  and  C2_8
REMARK    4  A    between atoms: C5_11  and  N5_12
REMARK    5  A    between atoms: C6_13  and  C7_15
REMARK    6  A    between atoms: C7_15  and  O7_16
REMARK    7  A    between atoms: C7_15  and  C8_17
REMARK    8  A    between atoms: C8_17  and  O8_18
REMARK    9  A    between atoms: C8_17  and  C9_19
REMARK   10  A    between atoms: C9_19  and  O9_20
REMARK                            x       y       z     vdW  Elec       q    Type
REMARK                         _______ _______ _______ _____ _____    ______ ____
ROOT
ATOM      1  C2  ZMR A 466      12.232  48.841  11.469  0.00  0.00    +0.000 C 
ATOM      2  C3  ZMR A 466      12.172  50.134  11.829  0.00  0.00    +0.000 C 
ATOM      3  C4  ZMR A 466      11.718  50.533  13.200  0.00  0.00    +0.000 C 
ATOM      4  C5  ZMR A 466      11.716  49.391  14.151  0.00  0.00    +0.000 C 
ATOM      5  C6  ZMR A 466      11.116  48.148  13.429  0.00  0.00    +0.000 C 
ATOM      6  O6  ZMR A 466      11.874  47.848  12.260  0.00  0.00    +0.000 OA
ENDROOT
BRANCH   3   7
ATOM      7  NE  ZMR A 466      12.471  51.634  13.761  0.00  0.00    +0.000 N 
ATOM      8  CZ  ZMR A 466      11.937  52.839  13.940  0.00  0.00    +0.000 C 
ATOM      9  NH1 ZMR A 466      10.717  53.135  13.478  0.00  0.00    +0.000 NA
ATOM     10  NH2 ZMR A 466      12.619  53.731  14.652  0.00  0.00    +0.000 N 
ATOM     11  H01 ZMR A 466      10.192  52.446  12.959  0.00  0.00    +0.000 HD
ATOM     12  H02 ZMR A 466      13.528  53.494  15.021  0.00  0.00    +0.000 HD
ATOM     13  H03 ZMR A 466      12.227  54.646  14.825  0.00  0.00    +0.000 HD
ATOM     14  H05 ZMR A 466      13.434  51.483  14.025  0.00  0.00    +0.000 HD
ENDBRANCH   3   7
BRANCH   4  15
ATOM     15  N5  ZMR A 466      10.895  49.696  15.314  0.00  0.00    +0.000 N 
ATOM     16  C10 ZMR A 466      11.378  50.203  16.452  0.00  0.00    +0.000 C 
ATOM     17  O10 ZMR A 466      12.563  50.320  16.692  0.00  0.00    +0.000 OA
ATOM     18  C11 ZMR A 466      10.325  50.655  17.444  0.00  0.00    +0.000 C 
ATOM     19  H06 ZMR A 466       9.903  49.515  15.257  0.00  0.00    +0.000 HD
ENDBRANCH   4  15
BRANCH   1  20
ATOM     20  C1  ZMR A 466      12.721  48.472  10.129  0.00  0.00    +0.000 C 
ATOM     21  O1A ZMR A 466      12.042  47.529   9.471  0.00  0.00    +0.000 OA
BRANCH  20  22
ATOM     22  O1B ZMR A 466      13.693  49.014   9.707  0.00  0.00    +0.000 OA
ATOM     23  H04 ZMR A 466      14.172  48.412   9.134  0.00  0.00    +0.000 HD
ENDBRANCH  20  22
ENDBRANCH   1  20
BRANCH   5  24
ATOM     24  C7  ZMR A 466      10.853  46.897  14.254  0.00  0.00    +0.000 C 
BRANCH  24  25
ATOM     25  O7  ZMR A 466      11.789  46.513  13.812  0.00  0.00    +0.000 OA
ATOM     26  H07 ZMR A 466      12.536  46.990  14.179  0.00  0.00    +0.000 HD
ENDBRANCH  24  25
BRANCH  24  27
ATOM     27  C8  ZMR A 466       9.546  46.314  14.110  0.00  0.00    +0.000 C 
BRANCH  27  28
ATOM     28  O8  ZMR A 466       9.469  46.109  12.697  0.00  0.00    +0.000 OA
ATOM     29  H08 ZMR A 466      10.348  46.173  12.315  0.00  0.00    +0.000 HD
ENDBRANCH  27  28
BRANCH  27  30
ATOM     30  C9  ZMR A 466       8.383  47.194  14.565  0.00  0.00    +0.000 C 
BRANCH  30  31
ATOM     31  O9  ZMR A 466       8.641  47.718  15.867  0.00  0.00    +0.000 OA
ATOM     32  H09 ZMR A 466       8.612  48.677  15.837  0.00  0.00    +0.000 HD
ENDBRANCH  30  31
ENDBRANCH  27  30
ENDBRANCH  24  27
ENDBRANCH   5  24
TORSDOF 10
ENDMDL
MODEL 4
REMARK VINA RESULT:    -4.558      7.408      9.536
REMARK INTER + INTRA:          -8.228
REMARK INTER:                  -6.550
REMARK INTRA:                  -1.678
REMARK UNBOUND:                -1.539
REMARK  Name = 1A4G-ZMR.pdb
REMARK  10 active torsions:
REMARK  status: ('A' for Active; 'I' for Inactive)
REMARK    1  A    between atoms: NE_1  and  C4_10
REMARK    2  A    between atoms: C1_5  and  O1B_7
REMARK    3  A    between atoms: C1_5  and  C2_8
REMARK    4  A    between atoms: C5_11  and  N5_12
REMARK    5  A    between atoms: C6_13  and  C7_15
REMARK    6  A    between atoms: C7_15  and  O7_16
REMARK    7  A    between atoms: C7_15  and  C8_17
REMARK    8  A    between atoms: C8_17  and  O8_18
REMARK    9  A    between atoms: C8_17  and  C9_19
REMARK   10  A    between atoms: C9_19  and  O9_20
REMARK                            x       y       z     vdW  Elec       q    Type
REMARK                         _______ _______ _______ _____ _____    ______ ____
ROOT
ATOM      1  C2  ZMR A 466      10.455  59.836  12.243  0.00  0.00    +0.000 C 
ATOM      2  C3  ZMR A 466      11.796  59.792  12.302  0.00  0.00    +0.000 C 
ATOM      3  C4  ZMR A 466      12.514  59.838  13.617  0.00  0.00    +0.000 C 
ATOM      4  C5  ZMR A 466      11.610  59.567  14.765  0.00  0.00    +0.000 C 
ATOM      5  C6  ZMR A 466      10.279  60.346  14.540  0.00  0.00    +0.000 C 
ATOM      6  O6  ZMR A 466       9.684  59.952  13.307  0.00  0.00    +0.000 OA
ENDROOT
BRANCH   3   7
ATOM      7  NE  ZMR A 466      13.661  58.958  13.680  0.00  0.00    +0.000 N 
ATOM      8  CZ  ZMR A 466      14.837  59.361  14.153  0.00  0.00    +0.000 C 
ATOM      9  NH1 ZMR A 466      15.061  60.642  14.463  0.00  0.00    +0.000 NA
ATOM     10  NH2 ZMR A 466      15.773  58.443  14.377  0.00  0.00    +0.000 N 
ATOM     11  H01 ZMR A 466      14.338  61.332  14.314  0.00  0.00    +0.000 HD
ATOM     12  H02 ZMR A 466      15.590  57.473  14.166  0.00  0.00    +0.000 HD
ATOM     13  H03 ZMR A 466      16.667  58.717  14.760  0.00  0.00    +0.000 HD
ATOM     14  H05 ZMR A 466      13.565  58.007  13.354  0.00  0.00    +0.000 HD
ENDBRANCH   3   7
BRANCH   4  15
ATOM     15  N5  ZMR A 466      12.214  60.023  16.008  0.00  0.00    +0.000 N 
ATOM     16  C10 ZMR A 466      12.307  59.271  17.108  0.00  0.00    +0.000 C 
ATOM     17  O10 ZMR A 466      11.768  58.190  17.237  0.00  0.00    +0.000 OA
ATOM     18  C11 ZMR A 466      13.169  59.857  18.208  0.00  0.00    +0.000 C 
ATOM     19  H06 ZMR A 466      12.584  60.963  16.041  0.00  0.00    +0.000 HD
ENDBRANCH   4  15
BRANCH   1  20
ATOM     20  C1  ZMR A 466       9.771  59.748  10.941  0.00  0.00    +0.000 C 
ATOM     21  O1A ZMR A 466       8.840  60.668  10.678  0.00  0.00    +0.000 OA
BRANCH  20  22
ATOM     22  O1B ZMR A 466      10.068  58.865  10.200  0.00  0.00    +0.000 OA
ATOM     23  H04 ZMR A 466       9.551  58.084  10.409  0.00  0.00    +0.000 HD
ENDBRANCH  20  22
ENDBRANCH   1  20
BRANCH   5  24
ATOM     24  C7  ZMR A 466       9.259  60.361  15.668  0.00  0.00    +0.000 C 
BRANCH  24  25
ATOM     25  O7  ZMR A 466       9.233  59.264  15.544  0.00  0.00    +0.000 OA
ATOM     26  H07 ZMR A 466       8.374  58.931  15.812  0.00  0.00    +0.000 HD
ENDBRANCH  24  25
BRANCH  24  27
ATOM     27  C8  ZMR A 466       8.147  61.259  15.497  0.00  0.00    +0.000 C 
BRANCH  27  28
ATOM     28  O8  ZMR A 466       7.130  60.378  15.014  0.00  0.00    +0.000 OA
ATOM     29  H08 ZMR A 466       7.367  60.063  14.138  0.00  0.00    +0.000 HD
ENDBRANCH  27  28
BRANCH  27  30
ATOM     30  C9  ZMR A 466       8.368  62.388  14.492  0.00  0.00    +0.000 C 
BRANCH  30  31
ATOM     31  O9  ZMR A 466       7.704  62.091  13.264  0.00  0.00    +0.000 OA
ATOM     32  H09 ZMR A 466       8.319  62.199  12.534  0.00  0.00    +0.000 HD
ENDBRANCH  30  31
ENDBRANCH  27  30
ENDBRANCH  24  27
ENDBRANCH   5  24
TORSDOF 10
ENDMDL
MODEL 5
REMARK VINA RESULT:    -4.527     11.130     12.849
REMARK INTER + INTRA:          -8.182
REMARK INTER:                  -6.961
REMARK INTRA:                  -1.221
REMARK UNBOUND:                -1.539
REMARK  Name = 1A4G-ZMR.pdb
REMARK  10 active torsions:
REMARK  status: ('A' for Active; 'I' for Inactive)
REMARK    1  A    between atoms: NE_1  and  C4_10
REMARK    2  A    between atoms: C1_5  and  O1B_7
REMARK    3  A    between atoms: C1_5  and  C2_8
REMARK    4  A    between atoms: C5_11  and  N5_12
REMARK    5  A    between atoms: C6_13  and  C7_15
REMARK    6  A    between atoms: C7_15  and  O7_16
REMARK    7  A    between atoms: C7_15  and  C8_17
REMARK    8  A    between atoms: C8_17  and  O8_18
REMARK    9  A    between atoms: C8_17  and  C9_19
REMARK   10  A    between atoms: C9_19  and  O9_20
REMARK                            x       y       z     vdW  Elec       q    Type
REMARK                         _______ _______ _______ _____ _____    ______ ____
ROOT
ATOM      1  C2  ZMR A 466      11.491  50.439  13.952  0.00  0.00    +0.000 C 
ATOM      2  C3  ZMR A 466      11.894  49.317  13.334  0.00  0.00    +0.000 C 
ATOM      3  C4  ZMR A 466      11.184  48.016  13.556  0.00  0.00    +0.000 C 
ATOM      4  C5  ZMR A 466       9.853  48.198  14.191  0.00  0.00    +0.000 C 
ATOM      5  C6  ZMR A 466       9.990  49.251  15.331  0.00  0.00    +0.000 C 
ATOM      6  O6  ZMR A 466      10.486  50.479  14.806  0.00  0.00    +0.000 OA
ENDROOT
BRANCH   3   7
ATOM      7  NE  ZMR A 466      11.048  47.220  12.355  0.00  0.00    +0.000 N 
ATOM      8  CZ  ZMR A 466      11.796  46.144  12.129  0.00  0.00    +0.000 C 
ATOM      9  NH1 ZMR A 466      12.814  45.823  12.935  0.00  0.00    +0.000 NA
ATOM     10  NH2 ZMR A 466      11.467  45.349  11.115  0.00  0.00    +0.000 N 
ATOM     11  H01 ZMR A 466      13.044  46.416  13.719  0.00  0.00    +0.000 HD
ATOM     12  H02 ZMR A 466      10.682  45.582  10.525  0.00  0.00    +0.000 HD
ATOM     13  H03 ZMR A 466      12.003  44.512  10.935  0.00  0.00    +0.000 HD
ATOM     14  H05 ZMR A 466      10.361  47.491  11.665  0.00  0.00    +0.000 HD
ENDBRANCH   3   7
BRANCH   4  15
ATOM     15  N5  ZMR A 466       9.387  46.945  14.766  0.00  0.00    +0.000 N 
ATOM     16  C10 ZMR A 466       8.136  46.491  14.642  0.00  0.00    +0.000 C 
ATOM     17  O10 ZMR A 466       7.223  47.140  14.172  0.00  0.00    +0.000 OA
ATOM     18  C11 ZMR A 466       7.927  45.068  15.120  0.00  0.00    +0.000 C 
ATOM     19  H06 ZMR A 466      10.047  46.386  15.288  0.00  0.00    +0.000 HD
ENDBRANCH   4  15
BRANCH   1  20
ATOM     20  C1  ZMR A 466      12.179  51.715  13.686  0.00  0.00    +0.000 C 
ATOM     21  O1A ZMR A 466      13.337  51.925  14.316  0.00  0.00    +0.000 OA
BRANCH  20  22
ATOM     22  O1B ZMR A 466      11.671  52.492  12.941  0.00  0.00    +0.000 OA
ATOM     23  H04 ZMR A 466      10.751  52.614  13.184  0.00  0.00    +0.000 HD
ENDBRANCH  20  22
ENDBRANCH   1  20
BRANCH   5  24
ATOM     24  C7  ZMR A 466       8.793  49.481  16.241  0.00  0.00    +0.000 C 
BRANCH  24  25
ATOM     25  O7  ZMR A 466       8.292  49.875  15.339  0.00  0.00    +0.000 OA
ATOM     26  H07 ZMR A 466       8.006  50.777  15.500  0.00  0.00    +0.000 HD
ENDBRANCH  24  25
BRANCH  24  27
ATOM     27  C8  ZMR A 466       9.056  50.212  17.452  0.00  0.00    +0.000 C 
BRANCH  27  28
ATOM     28  O8  ZMR A 466       7.969  49.802  18.285  0.00  0.00    +0.000 OA
ATOM     29  H08 ZMR A 466       8.237  49.046  18.813  0.00  0.00    +0.000 HD
ENDBRANCH  27  28
BRANCH  27  30
ATOM     30  C9  ZMR A 466       9.048  51.734  17.311  0.00  0.00    +0.000 C 
BRANCH  30  31
ATOM     31  O9  ZMR A 466       7.727  52.196  17.034  0.00  0.00    +0.000 OA
ATOM     32  H09 ZMR A 466       7.110  51.464  17.106  0.00  0.00    +0.000 HD
ENDBRANCH  30  31
ENDBRANCH  27  30
ENDBRANCH  24  27
ENDBRANCH   5  24
TORSDOF 10
ENDMDL
MODEL 6
REMARK VINA RESULT:    -4.510     10.266     11.732
REMARK INTER + INTRA:          -8.157
REMARK INTER:                  -6.371
REMARK INTRA:                  -1.786
REMARK UNBOUND:                -1.539
REMARK  Name = 1A4G-ZMR.pdb
REMARK  10 active torsions:
REMARK  status: ('A' for Active; 'I' for Inactive)
REMARK    1  A    between atoms: NE_1  and  C4_10
REMARK    2  A    between atoms: C1_5  and  O1B_7
REMARK    3  A    between atoms: C1_5  and  C2_8
REMARK    4  A    between atoms: C5_11  and  N5_12
REMARK    5  A    between atoms: C6_13  and  C7_15
REMARK    6  A    between atoms: C7_15  and  O7_16
REMARK    7  A    between atoms: C7_15  and  C8_17
REMARK    8  A    between atoms: C8_17  and  O8_18
REMARK    9  A    between atoms: C8_17  and  C9_19
REMARK   10  A    between atoms: C9_19  and  O9_20
REMARK                            x       y       z     vdW  Elec       q    Type
REMARK                         _______ _______ _______ _____ _____    ______ ____
ROOT
ATOM      1  C2  ZMR A 466      11.455  48.606  12.364  0.00  0.00    +0.000 C 
ATOM      2  C3  ZMR A 466      10.678  47.586  12.765  0.00  0.00    +0.000 C 
ATOM      3  C4  ZMR A 466      10.063  47.574  14.131  0.00  0.00    +0.000 C 
ATOM      4  C5  ZMR A 466      10.104  48.909  14.783  0.00  0.00    +0.000 C 
ATOM      5  C6  ZMR A 466      11.508  49.538  14.532  0.00  0.00    +0.000 C 
ATOM      6  O6  ZMR A 466      11.756  49.636  13.132  0.00  0.00    +0.000 OA
ENDROOT
BRANCH   3   7
ATOM      7  NE  ZMR A 466       8.710  47.063  14.151  0.00  0.00    +0.000 N 
ATOM      8  CZ  ZMR A 466       8.299  46.180  15.057  0.00  0.00    +0.000 C 
ATOM      9  NH1 ZMR A 466       9.155  45.610  15.912  0.00  0.00    +0.000 NA
ATOM     10  NH2 ZMR A 466       6.996  45.924  15.142  0.00  0.00    +0.000 N 
ATOM     11  H01 ZMR A 466      10.140  45.828  15.860  0.00  0.00    +0.000 HD
ATOM     12  H02 ZMR A 466       6.351  46.377  14.512  0.00  0.00    +0.000 HD
ATOM     13  H03 ZMR A 466       6.653  45.277  15.838  0.00  0.00    +0.000 HD
ATOM     14  H05 ZMR A 466       8.055  47.387  13.454  0.00  0.00    +0.000 HD
ENDBRANCH   3   7
BRANCH   4  15
ATOM     15  N5  ZMR A 466       9.900  48.783  16.218  0.00  0.00    +0.000 N 
ATOM     16  C10 ZMR A 466       8.990  49.482  16.903  0.00  0.00    +0.000 C 
ATOM     17  O10 ZMR A 466       8.346  50.399  16.434  0.00  0.00    +0.000 OA
ATOM     18  C11 ZMR A 466       8.791  49.033  18.337  0.00  0.00    +0.000 C 
ATOM     19  H06 ZMR A 466      10.479  48.129  16.726  0.00  0.00    +0.000 HD
ENDBRANCH   4  15
BRANCH   1  20
ATOM     20  C1  ZMR A 466      12.015  48.615  11.002  0.00  0.00    +0.000 C 
ATOM     21  O1A ZMR A 466      13.180  49.244  10.825  0.00  0.00    +0.000 OA
BRANCH  20  22
ATOM     22  O1B ZMR A 466      11.405  48.079  10.131  0.00  0.00    +0.000 OA
ATOM     23  H04 ZMR A 466      11.626  48.484   9.290  0.00  0.00    +0.000 HD
ENDBRANCH  20  22
ENDBRANCH   1  20
BRANCH   5  24
ATOM     24  C7  ZMR A 466      11.849  50.836  15.247  0.00  0.00    +0.000 C 
BRANCH  24  25
ATOM     25  O7  ZMR A 466      10.935  51.237  14.775  0.00  0.00    +0.000 OA
ATOM     26  H07 ZMR A 466      10.200  50.644  14.946  0.00  0.00    +0.000 HD
ENDBRANCH  24  25
BRANCH  24  27
ATOM     27  C8  ZMR A 466      13.188  51.327  15.052  0.00  0.00    +0.000 C 
BRANCH  27  28
ATOM     28  O8  ZMR A 466      13.047  52.097  13.855  0.00  0.00    +0.000 OA
ATOM     29  H08 ZMR A 466      13.549  51.686  13.148  0.00  0.00    +0.000 HD
ENDBRANCH  27  28
BRANCH  27  30
ATOM     30  C9  ZMR A 466      14.255  50.253  14.847  0.00  0.00    +0.000 C 
BRANCH  30  31
ATOM     31  O9  ZMR A 466      14.680  50.234  13.485  0.00  0.00    +0.000 OA
ATOM     32  H09 ZMR A 466      15.312  49.522  13.357  0.00  0.00    +0.000 HD
ENDBRANCH  30  31
ENDBRANCH  27  30
ENDBRANCH  24  27
ENDBRANCH   5  24
TORSDOF 10
ENDMDL
MODEL 7
REMARK VINA RESULT:    -4.397      2.801      5.122
REMARK INTER + INTRA:          -7.992
REMARK INTER:                  -6.301
REMARK INTRA:                  -1.691
REMARK UNBOUND:                -1.539
REMARK  Name = 1A4G-ZMR.pdb
REMARK  10 active torsions:
REMARK  status: ('A' for Active; 'I' for Inactive)
REMARK    1  A    between atoms: NE_1  and  C4_10
REMARK    2  A    between atoms: C1_5  and  O1B_7
REMARK    3  A    between atoms: C1_5  and  C2_8
REMARK    4  A    between atoms: C5_11  and  N5_12
REMARK    5  A    between atoms: C6_13  and  C7_15
REMARK    6  A    between atoms: C7_15  and  O7_16
REMARK    7  A    between atoms: C7_15  and  C8_17
REMARK    8  A    between atoms: C8_17  and  O8_18
REMARK    9  A    between atoms: C8_17  and  C9_19
REMARK   10  A    between atoms: C9_19  and  O9_20
REMARK                            x       y       z     vdW  Elec       q    Type
REMARK                         _______ _______ _______ _____ _____    ______ ____
ROOT
ATOM      1  C2  ZMR A 466      17.791  56.247  10.591  0.00  0.00    +0.000 C 
ATOM      2  C3  ZMR A 466      18.662  55.241  10.410  0.00  0.00    +0.000 C 
ATOM      3  C4  ZMR A 466      19.620  54.844  11.491  0.00  0.00    +0.000 C 
ATOM      4  C5  ZMR A 466      19.246  55.407  12.814  0.00  0.00    +0.000 C 
ATOM      5  C6  ZMR A 466      18.817  56.892  12.616  0.00  0.00    +0.000 C 
ATOM      6  O6  ZMR A 466      17.734  56.969  11.694  0.00  0.00    +0.000 OA
ENDROOT
BRANCH   3   7
ATOM      7  NE  ZMR A 466      19.804  53.413  11.604  0.00  0.00    +0.000 N 
ATOM      8  CZ  ZMR A 466      21.010  52.853  11.623  0.00  0.00    +0.000 C 
ATOM      9  NH1 ZMR A 466      22.115  53.572  11.395  0.00  0.00    +0.000 NA
ATOM     10  NH2 ZMR A 466      21.103  51.565  11.943  0.00  0.00    +0.000 N 
ATOM     11  H01 ZMR A 466      22.041  54.555  11.177  0.00  0.00    +0.000 HD
ATOM     12  H02 ZMR A 466      20.268  51.033  12.140  0.00  0.00    +0.000 HD
ATOM     13  H03 ZMR A 466      22.008  51.120  11.990  0.00  0.00    +0.000 HD
ATOM     14  H05 ZMR A 466      18.989  52.820  11.671  0.00  0.00    +0.000 HD
ENDBRANCH   3   7
BRANCH   4  15
ATOM     15  N5  ZMR A 466      20.379  55.367  13.726  0.00  0.00    +0.000 N 
ATOM     16  C10 ZMR A 466      20.546  54.429  14.664  0.00  0.00    +0.000 C 
ATOM     17  O10 ZMR A 466      19.702  53.606  14.955  0.00  0.00    +0.000 OA
ATOM     18  C11 ZMR A 466      21.899  54.445  15.345  0.00  0.00    +0.000 C 
ATOM     19  H06 ZMR A 466      21.081  56.089  13.645  0.00  0.00    +0.000 HD
ENDBRANCH   4  15
BRANCH   1  20
ATOM     20  C1  ZMR A 466      16.831  56.592   9.528  0.00  0.00    +0.000 C 
ATOM     21  O1A ZMR A 466      17.061  57.712   8.838  0.00  0.00    +0.000 OA
BRANCH  20  22
ATOM     22  O1B ZMR A 466      15.902  55.872   9.344  0.00  0.00    +0.000 OA
ATOM     23  H04 ZMR A 466      16.070  55.322   8.576  0.00  0.00    +0.000 HD
ENDBRANCH  20  22
ENDBRANCH   1  20
BRANCH   5  24
ATOM     24  C7  ZMR A 466      18.551  57.733  13.855  0.00  0.00    +0.000 C 
BRANCH  24  25
ATOM     25  O7  ZMR A 466      17.977  56.862  14.217  0.00  0.00    +0.000 OA
ATOM     26  H07 ZMR A 466      18.582  56.181  14.516  0.00  0.00    +0.000 HD
ENDBRANCH  24  25
BRANCH  24  27
ATOM     27  C8  ZMR A 466      18.029  59.053  13.618  0.00  0.00    +0.000 C 
BRANCH  27  28
ATOM     28  O8  ZMR A 466      18.886  59.858  14.432  0.00  0.00    +0.000 OA
ATOM     29  H08 ZMR A 466      19.708  59.391  14.592  0.00  0.00    +0.000 HD
ENDBRANCH  27  28
BRANCH  27  30
ATOM     30  C9  ZMR A 466      16.575  59.266  14.036  0.00  0.00    +0.000 C 
BRANCH  30  31
ATOM     31  O9  ZMR A 466      15.708  58.473  13.225  0.00  0.00    +0.000 OA
ATOM     32  H09 ZMR A 466      15.743  57.559  13.519  0.00  0.00    +0.000 HD
ENDBRANCH  30  31
ENDBRANCH  27  30
ENDBRANCH  24  27
ENDBRANCH   5  24
TORSDOF 10
ENDMDL
MODEL 8
REMARK VINA RESULT:    -4.379     10.291     11.734
REMARK INTER + INTRA:          -7.965
REMARK INTER:                  -6.391
REMARK INTRA:                  -1.575
REMARK UNBOUND:                -1.539
REMARK  Name = 1A4G-ZMR.pdb
REMARK  10 active torsions:
REMARK  status: ('A' for Active; 'I' for Inactive)
REMARK    1  A    between atoms: NE_1  and  C4_10
REMARK    2  A    between atoms: C1_5  and  O1B_7
REMARK    3  A    between atoms: C1_5  and  C2_8
REMARK    4  A    between atoms: C5_11  and  N5_12
REMARK    5  A    between atoms: C6_13  and  C7_15
REMARK    6  A    between atoms: C7_15  and  O7_16
REMARK    7  A    between atoms: C7_15  and  C8_17
REMARK    8  A    between atoms: C8_17  and  O8_18
REMARK    9  A    between atoms: C8_17  and  C9_19
REMARK   10  A    between atoms: C9_19  and  O9_20
REMARK                            x       y       z     vdW  Elec       q    Type
REMARK                         _______ _______ _______ _____ _____    ______ ____
ROOT
ATOM      1  C2  ZMR A 466      10.859  49.174  14.376  0.00  0.00    +0.000 C 
ATOM      2  C3  ZMR A 466      10.238  48.607  15.423  0.00  0.00    +0.000 C 
ATOM      3  C4  ZMR A 466       9.532  49.442  16.448  0.00  0.00    +0.000 C 
ATOM      4  C5  ZMR A 466       9.297  50.833  15.980  0.00  0.00    +0.000 C 
ATOM      5  C6  ZMR A 466      10.588  51.341  15.271  0.00  0.00    +0.000 C 
ATOM      6  O6  ZMR A 466      10.922  50.479  14.187  0.00  0.00    +0.000 OA
ENDROOT
BRANCH   3   7
ATOM      7  NE  ZMR A 466       8.287  48.864  16.906  0.00  0.00    +0.000 N 
ATOM      8  CZ  ZMR A 466       8.134  48.403  18.144  0.00  0.00    +0.000 C 
ATOM      9  NH1 ZMR A 466       9.167  48.320  18.989  0.00  0.00    +0.000 NA
ATOM     10  NH2 ZMR A 466       6.907  48.088  18.552  0.00  0.00    +0.000 N 
ATOM     11  H01 ZMR A 466      10.092  48.585  18.683  0.00  0.00    +0.000 HD
ATOM     12  H02 ZMR A 466       6.126  48.177  17.919  0.00  0.00    +0.000 HD
ATOM     13  H03 ZMR A 466       6.758  47.759  19.495  0.00  0.00    +0.000 HD
ATOM     14  H05 ZMR A 466       7.509  48.808  16.265  0.00  0.00    +0.000 HD
ENDBRANCH   3   7
BRANCH   4  15
ATOM     15  N5  ZMR A 466       9.008  51.708  17.107  0.00  0.00    +0.000 N 
ATOM     16  C10 ZMR A 466       7.960  52.535  17.156  0.00  0.00    +0.000 C 
ATOM     17  O10 ZMR A 466       7.227  52.755  16.213  0.00  0.00    +0.000 OA
ATOM     18  C11 ZMR A 466       7.723  53.182  18.505  0.00  0.00    +0.000 C 
ATOM     19  H06 ZMR A 466       9.637  51.689  17.897  0.00  0.00    +0.000 HD
ENDBRANCH   4  15
BRANCH   1  20
ATOM     20  C1  ZMR A 466      11.511  48.330  13.360  0.00  0.00    +0.000 C 
ATOM     21  O1A ZMR A 466      11.567  47.018  13.602  0.00  0.00    +0.000 OA
BRANCH  20  22
ATOM     22  O1B ZMR A 466      11.962  48.851  12.389  0.00  0.00    +0.000 OA
ATOM     23  H04 ZMR A 466      11.495  49.671  12.220  0.00  0.00    +0.000 HD
ENDBRANCH  20  22
ENDBRANCH   1  20
BRANCH   5  24
ATOM     24  C7  ZMR A 466      10.650  52.802  14.856  0.00  0.00    +0.000 C 
BRANCH  24  25
ATOM     25  O7  ZMR A 466       9.800  52.561  14.194  0.00  0.00    +0.000 OA
ATOM     26  H07 ZMR A 466       8.999  52.957  14.543  0.00  0.00    +0.000 HD
ENDBRANCH  24  25
BRANCH  24  27
ATOM     27  C8  ZMR A 466      11.940  53.282  14.436  0.00  0.00    +0.000 C 
BRANCH  27  28
ATOM     28  O8  ZMR A 466      11.990  52.840  13.077  0.00  0.00    +0.000 OA
ATOM     29  H08 ZMR A 466      12.427  51.986  13.033  0.00  0.00    +0.000 HD
ENDBRANCH  27  28
BRANCH  27  30
ATOM     30  C9  ZMR A 466      13.131  52.712  15.205  0.00  0.00    +0.000 C 
BRANCH  30  31
ATOM     31  O9  ZMR A 466      13.732  51.650  14.465  0.00  0.00    +0.000 OA
ATOM     32  H09 ZMR A 466      14.042  50.973  15.071  0.00  0.00    +0.000 HD
ENDBRANCH  30  31
ENDBRANCH  27  30
ENDBRANCH  24  27
ENDBRANCH   5  24
TORSDOF 10
ENDMDL
MODEL 9
REMARK VINA RESULT:    -4.280      9.862     11.541
REMARK INTER + INTRA:          -7.820
REMARK INTER:                  -6.403
REMARK INTRA:                  -1.417
REMARK UNBOUND:                -1.539
REMARK  Name = 1A4G-ZMR.pdb
REMARK  10 active torsions:
REMARK  status: ('A' for Active; 'I' for Inactive)
REMARK    1  A    between atoms: NE_1  and  C4_10
REMARK    2  A    between atoms: C1_5  and  O1B_7
REMARK    3  A    between atoms: C1_5  and  C2_8
REMARK    4  A    between atoms: C5_11  and  N5_12
REMARK    5  A    between atoms: C6_13  and  C7_15
REMARK    6  A    between atoms: C7_15  and  O7_16
REMARK    7  A    between atoms: C7_15  and  C8_17
REMARK    8  A    between atoms: C8_17  and  O8_18
REMARK    9  A    between atoms: C8_17  and  C9_19
REMARK   10  A    between atoms: C9_19  and  O9_20
REMARK                            x       y       z     vdW  Elec       q    Type
REMARK                         _______ _______ _______ _____ _____    ______ ____
ROOT
ATOM      1  C2  ZMR A 466      11.601  50.981  13.557  0.00  0.00    +0.000 C 
ATOM      2  C3  ZMR A 466      10.698  50.333  14.311  0.00  0.00    +0.000 C 
ATOM      3  C4  ZMR A 466      10.553  48.843  14.233  0.00  0.00    +0.000 C 
ATOM      4  C5  ZMR A 466      11.708  48.197  13.557  0.00  0.00    +0.000 C 
ATOM      5  C6  ZMR A 466      12.083  49.042  12.303  0.00  0.00    +0.000 C 
ATOM      6  O6  ZMR A 466      12.389  50.379  12.688  0.00  0.00    +0.000 OA
ENDROOT
BRANCH   3   7
ATOM      7  NE  ZMR A 466      10.325  48.217  15.517  0.00  0.00    +0.000 N 
ATOM      8  CZ  ZMR A 466       9.346  47.338  15.712  0.00  0.00    +0.000 C 
ATOM      9  NH1 ZMR A 466       8.430  47.095  14.768  0.00  0.00    +0.000 NA
ATOM     10  NH2 ZMR A 466       9.334  46.650  16.851  0.00  0.00    +0.000 N 
ATOM     11  H01 ZMR A 466       8.458  47.602  13.895  0.00  0.00    +0.000 HD
ATOM     12  H02 ZMR A 466      10.043  46.819  17.550  0.00  0.00    +0.000 HD
ATOM     13  H03 ZMR A 466       8.616  45.959  17.015  0.00  0.00    +0.000 HD
ATOM     14  H05 ZMR A 466      10.929  48.454  16.290  0.00  0.00    +0.000 HD
ENDBRANCH   3   7
BRANCH   4  15
ATOM     15  N5  ZMR A 466      11.360  46.851  13.126  0.00  0.00    +0.000 N 
ATOM     16  C10 ZMR A 466      11.942  45.745  13.599  0.00  0.00    +0.000 C 
ATOM     17  O10 ZMR A 466      12.920  45.750  14.319  0.00  0.00    +0.000 OA
ATOM     18  C11 ZMR A 466      11.274  44.449  13.186  0.00  0.00    +0.000 C 
ATOM     19  H06 ZMR A 466      10.635  46.747  12.430  0.00  0.00    +0.000 HD
ENDBRANCH   4  15
BRANCH   1  20
ATOM     20  C1  ZMR A 466      11.753  52.441  13.683  0.00  0.00    +0.000 C 
ATOM     21  O1A ZMR A 466      12.921  52.895  14.144  0.00  0.00    +0.000 OA
BRANCH  20  22
ATOM     22  O1B ZMR A 466      10.836  53.138  13.382  0.00  0.00    +0.000 OA
ATOM     23  H04 ZMR A 466      10.594  53.689  14.130  0.00  0.00    +0.000 HD
ENDBRANCH  20  22
ENDBRANCH   1  20
BRANCH   5  24
ATOM     24  C7  ZMR A 466      13.131  48.485  11.351  0.00  0.00    +0.000 C 
BRANCH  24  25
ATOM     25  O7  ZMR A 466      13.673  49.430  11.533  0.00  0.00    +0.000 OA
ATOM     26  H07 ZMR A 466      14.072  49.732  10.715  0.00  0.00    +0.000 HD
ENDBRANCH  24  25
BRANCH  24  27
ATOM     27  C8  ZMR A 466      12.641  48.021  10.080  0.00  0.00    +0.000 C 
BRANCH  27  28
ATOM     28  O8  ZMR A 466      11.234  48.244  10.208  0.00  0.00    +0.000 OA
ATOM     29  H08 ZMR A 466      11.007  48.333  11.137  0.00  0.00    +0.000 HD
ENDBRANCH  27  28
BRANCH  27  30
ATOM     30  C9  ZMR A 466      12.901  46.546   9.779  0.00  0.00    +0.000 C 
BRANCH  30  31
ATOM     31  O9  ZMR A 466      11.729  45.775  10.042  0.00  0.00    +0.000 OA
ATOM     32  H09 ZMR A 466      11.004  46.103   9.505  0.00  0.00    +0.000 HD
ENDBRANCH  30  31
ENDBRANCH  27  30
ENDBRANCH  24  27
ENDBRANCH   5  24
TORSDOF 10
ENDMDL
