MODEL 1
REMARK VINA RESULT:    -5.092      0.000      0.000
REMARK INTER + INTRA:          -9.038
REMARK INTER:                  -7.473
REMARK INTRA:                  -1.565
REMARK UNBOUND:                -1.565
REMARK  Name = /Users/sarah.hw01/Documents/Master/SS25/SBDD/Project/1A4G-ZMR.pdb
REMARK  10 active torsions:
REMARK  status: ('A' for Active; 'I' for Inactive)
REMARK    1  A    between atoms: NE_1  and  C4_10
REMARK    2  A    between atoms: C1_5  and  O1B_7
REMARK    3  A    between atoms: C1_5  and  C2_8
REMARK    4  A    between atoms: C5_11  and  N5_12
REMARK    5  A    between atoms: C6_13  and  C7_15
REMARK    6  A    between atoms: C7_15  and  O7_16
REMARK    7  A    between atoms: C7_15  and  C8_17
REMARK    8  A    between atoms: C8_17  and  O8_18
REMARK    9  A    between atoms: C8_17  and  C9_19
REMARK   10  A    between atoms: C9_19  and  O9_20
REMARK                            x       y       z     vdW  Elec       q    Type
REMARK                         _______ _______ _______ _____ _____    ______ ____
ROOT
ATOM      1  C2  ZMR A 466      17.865  56.634   9.209  0.00  0.00    +0.000 C 
ATOM      2  C3  ZMR A 466      17.116  57.514   9.894  0.00  0.00    +0.000 C 
ATOM      3  C4  ZMR A 466      17.259  57.659  11.379  0.00  0.00    +0.000 C 
ATOM      4  C5  ZMR A 466      18.506  57.034  11.892  0.00  0.00    +0.000 C 
ATOM      5  C6  ZMR A 466      18.691  55.655  11.191  0.00  0.00    +0.000 C 
ATOM      6  O6  ZMR A 466      18.741  55.827   9.778  0.00  0.00    +0.000 OA
ENDROOT
BRANCH   3   7
ATOM      7  NE  ZMR A 466      17.176  59.029  11.836  0.00  0.00    +0.000 N 
ATOM      8  CZ  ZMR A 466      16.407  59.389  12.860  0.00  0.00    +0.000 C 
ATOM      9  NH1 ZMR A 466      15.560  58.526  13.431  0.00  0.00    +0.000 NA
ATOM     10  NH2 ZMR A 466      16.548  60.617  13.353  0.00  0.00    +0.000 N 
ATOM     11  H01 ZMR A 466      15.475  57.588  13.069  0.00  0.00    +0.000 HD
ATOM     12  H02 ZMR A 466      17.208  61.256  12.935  0.00  0.00    +0.000 HD
ATOM     13  H03 ZMR A 466      15.995  60.909  14.146  0.00  0.00    +0.000 HD
ATOM     14  H05 ZMR A 466      17.720  59.736  11.362  0.00  0.00    +0.000 HD
ENDBRANCH   3   7
BRANCH   4  15
ATOM     15  N5  ZMR A 466      18.416  56.819  13.328  0.00  0.00    +0.000 N 
ATOM     16  C10 ZMR A 466      19.248  57.371  14.216  0.00  0.00    +0.000 C 
ATOM     17  O10 ZMR A 466      20.252  57.983  13.913  0.00  0.00    +0.000 OA
ATOM     18  C11 ZMR A 466      18.838  57.199  15.665  0.00  0.00    +0.000 C 
ATOM     19  H06 ZMR A 466      17.681  56.218  13.674  0.00  0.00    +0.000 HD
ENDBRANCH   4  15
BRANCH   1  20
ATOM     20  C1  ZMR A 466      17.736  56.539   7.745  0.00  0.00    +0.000 C 
ATOM     21  O1A ZMR A 466      17.115  57.544   7.121  0.00  0.00    +0.000 OA
BRANCH  20  22
ATOM     22  O1B ZMR A 466      18.174  55.579   7.195  0.00  0.00    +0.000 OA
ATOM     23  H04 ZMR A 466      17.721  54.794   7.512  0.00  0.00    +0.000 HD
ENDBRANCH  20  22
ENDBRANCH   1  20
BRANCH   5  24
ATOM     24  C7  ZMR A 466      19.811  54.749  11.678  0.00  0.00    +0.000 C 
BRANCH  24  25
ATOM     25  O7  ZMR A 466      20.427  55.236  10.902  0.00  0.00    +0.000 OA
ATOM     26  H07 ZMR A 466      19.990  55.158  10.051  0.00  0.00    +0.000 HD
ENDBRANCH  24  25
BRANCH  24  27
ATOM     27  C8  ZMR A 466      19.497  53.346  11.753  0.00  0.00    +0.000 C 
BRANCH  27  28
ATOM     28  O8  ZMR A 466      18.185  53.309  11.183  0.00  0.00    +0.000 OA
ATOM     29  H08 ZMR A 466      17.954  52.402  10.970  0.00  0.00    +0.000 HD
ENDBRANCH  27  28
BRANCH  27  30
ATOM     30  C9  ZMR A 466      19.460  52.759  13.162  0.00  0.00    +0.000 C 
BRANCH  30  31
ATOM     31  O9  ZMR A 466      18.873  53.691  14.070  0.00  0.00    +0.000 OA
ATOM     32  H09 ZMR A 466      17.992  53.393  14.309  0.00  0.00    +0.000 HD
ENDBRANCH  30  31
ENDBRANCH  27  30
ENDBRANCH  24  27
ENDBRANCH   5  24
TORSDOF 10
ENDMDL
MODEL 2
REMARK VINA RESULT:    -4.794      9.385     11.589
REMARK INTER + INTRA:          -8.601
REMARK INTER:                  -6.861
REMARK INTRA:                  -1.740
REMARK UNBOUND:                -1.565
REMARK  Name = /Users/sarah.hw01/Documents/Master/SS25/SBDD/Project/1A4G-ZMR.pdb
REMARK  10 active torsions:
REMARK  status: ('A' for Active; 'I' for Inactive)
REMARK    1  A    between atoms: NE_1  and  C4_10
REMARK    2  A    between atoms: C1_5  and  O1B_7
REMARK    3  A    between atoms: C1_5  and  C2_8
REMARK    4  A    between atoms: C5_11  and  N5_12
REMARK    5  A    between atoms: C6_13  and  C7_15
REMARK    6  A    between atoms: C7_15  and  O7_16
REMARK    7  A    between atoms: C7_15  and  C8_17
REMARK    8  A    between atoms: C8_17  and  O8_18
REMARK    9  A    between atoms: C8_17  and  C9_19
REMARK   10  A    between atoms: C9_19  and  O9_20
REMARK                            x       y       z     vdW  Elec       q    Type
REMARK                         _______ _______ _______ _____ _____    ______ ____
ROOT
ATOM      1  C2  ZMR A 466       8.255  62.537  12.834  0.00  0.00    +0.000 C 
ATOM      2  C3  ZMR A 466       7.705  63.135  11.765  0.00  0.00    +0.000 C 
ATOM      3  C4  ZMR A 466       8.046  62.695  10.373  0.00  0.00    +0.000 C 
ATOM      4  C5  ZMR A 466       8.715  61.369  10.347  0.00  0.00    +0.000 C 
ATOM      5  C6  ZMR A 466       9.770  61.324  11.492  0.00  0.00    +0.000 C 
ATOM      6  O6  ZMR A 466       9.140  61.562  12.747  0.00  0.00    +0.000 OA
ENDROOT
BRANCH   3   7
ATOM      7  NE  ZMR A 466       6.912  62.689   9.475  0.00  0.00    +0.000 N 
ATOM      8  CZ  ZMR A 466       6.960  63.245   8.268  0.00  0.00    +0.000 C 
ATOM      9  NH1 ZMR A 466       8.016  63.967   7.877  0.00  0.00    +0.000 NA
ATOM     10  NH2 ZMR A 466       5.958  63.012   7.426  0.00  0.00    +0.000 N 
ATOM     11  H01 ZMR A 466       8.786  64.120   8.511  0.00  0.00    +0.000 HD
ATOM     12  H02 ZMR A 466       5.175  62.445   7.717  0.00  0.00    +0.000 HD
ATOM     13  H03 ZMR A 466       5.980  63.402   6.494  0.00  0.00    +0.000 HD
ATOM     14  H05 ZMR A 466       6.054  62.246   9.775  0.00  0.00    +0.000 HD
ENDBRANCH   3   7
BRANCH   4  15
ATOM     15  N5  ZMR A 466       9.396  61.166   9.076  0.00  0.00    +0.000 N 
ATOM     16  C10 ZMR A 466       9.022  60.258   8.170  0.00  0.00    +0.000 C 
ATOM     17  O10 ZMR A 466       8.176  59.409   8.370  0.00  0.00    +0.000 OA
ATOM     18  C11 ZMR A 466       9.724  60.370   6.831  0.00  0.00    +0.000 C 
ATOM     19  H06 ZMR A 466      10.197  61.745   8.868  0.00  0.00    +0.000 HD
ENDBRANCH   4  15
BRANCH   1  20
ATOM     20  C1  ZMR A 466       7.873  62.960  14.193  0.00  0.00    +0.000 C 
ATOM     21  O1A ZMR A 466       7.027  63.988  14.296  0.00  0.00    +0.000 OA
BRANCH  20  22
ATOM     22  O1B ZMR A 466       8.339  62.381  15.123  0.00  0.00    +0.000 OA
ATOM     23  H04 ZMR A 466       8.392  62.974  15.875  0.00  0.00    +0.000 HD
ENDBRANCH  20  22
ENDBRANCH   1  20
BRANCH   5  24
ATOM     24  C7  ZMR A 466      10.704  60.126  11.559  0.00  0.00    +0.000 C 
BRANCH  24  25
ATOM     25  O7  ZMR A 466       9.784  59.523  11.652  0.00  0.00    +0.000 OA
ATOM     26  H07 ZMR A 466       9.947  58.638  11.319  0.00  0.00    +0.000 HD
ENDBRANCH  24  25
BRANCH  24  27
ATOM     27  C8  ZMR A 466      11.764  60.209  12.530  0.00  0.00    +0.000 C 
BRANCH  27  28
ATOM     28  O8  ZMR A 466      12.902  59.820  11.757  0.00  0.00    +0.000 OA
ATOM     29  H08 ZMR A 466      12.904  60.299  10.925  0.00  0.00    +0.000 HD
ENDBRANCH  27  28
BRANCH  27  30
ATOM     30  C9  ZMR A 466      11.620  59.282  13.735  0.00  0.00    +0.000 C 
BRANCH  30  31
ATOM     31  O9  ZMR A 466      10.351  59.475  14.358  0.00  0.00    +0.000 OA
ATOM     32  H09 ZMR A 466      10.264  60.392  14.630  0.00  0.00    +0.000 HD
ENDBRANCH  30  31
ENDBRANCH  27  30
ENDBRANCH  24  27
ENDBRANCH   5  24
TORSDOF 10
ENDMDL
MODEL 3
REMARK VINA RESULT:    -4.680      9.330     10.925
REMARK INTER + INTRA:          -8.433
REMARK INTER:                  -6.792
REMARK INTRA:                  -1.641
REMARK UNBOUND:                -1.565
REMARK  Name = /Users/sarah.hw01/Documents/Master/SS25/SBDD/Project/1A4G-ZMR.pdb
REMARK  10 active torsions:
REMARK  status: ('A' for Active; 'I' for Inactive)
REMARK    1  A    between atoms: NE_1  and  C4_10
REMARK    2  A    between atoms: C1_5  and  O1B_7
REMARK    3  A    between atoms: C1_5  and  C2_8
REMARK    4  A    between atoms: C5_11  and  N5_12
REMARK    5  A    between atoms: C6_13  and  C7_15
REMARK    6  A    between atoms: C7_15  and  O7_16
REMARK    7  A    between atoms: C7_15  and  C8_17
REMARK    8  A    between atoms: C8_17  and  O8_18
REMARK    9  A    between atoms: C8_17  and  C9_19
REMARK   10  A    between atoms: C9_19  and  O9_20
REMARK                            x       y       z     vdW  Elec       q    Type
REMARK                         _______ _______ _______ _____ _____    ______ ____
ROOT
ATOM      1  C2  ZMR A 466      10.246  47.518  13.520  0.00  0.00    +0.000 C 
ATOM      2  C3  ZMR A 466       9.818  48.203  14.593  0.00  0.00    +0.000 C 
ATOM      3  C4  ZMR A 466      10.371  49.558  14.916  0.00  0.00    +0.000 C 
ATOM      4  C5  ZMR A 466      11.106  50.156  13.772  0.00  0.00    +0.000 C 
ATOM      5  C6  ZMR A 466      11.995  49.052  13.124  0.00  0.00    +0.000 C 
ATOM      6  O6  ZMR A 466      11.185  47.958  12.704  0.00  0.00    +0.000 OA
ENDROOT
BRANCH   3   7
ATOM      7  NE  ZMR A 466       9.373  50.489  15.396  0.00  0.00    +0.000 N 
ATOM      8  CZ  ZMR A 466       9.251  50.795  16.685  0.00  0.00    +0.000 C 
ATOM      9  NH1 ZMR A 466       9.951  50.148  17.623  0.00  0.00    +0.000 NA
ATOM     10  NH2 ZMR A 466       8.462  51.812  17.019  0.00  0.00    +0.000 N 
ATOM     11  H01 ZMR A 466      10.569  49.393  17.361  0.00  0.00    +0.000 HD
ATOM     12  H02 ZMR A 466       7.955  52.314  16.305  0.00  0.00    +0.000 HD
ATOM     13  H03 ZMR A 466       8.369  52.082  17.988  0.00  0.00    +0.000 HD
ATOM     14  H05 ZMR A 466       8.749  50.922  14.730  0.00  0.00    +0.000 HD
ENDBRANCH   3   7
BRANCH   4  15
ATOM     15  N5  ZMR A 466      11.966  51.239  14.228  0.00  0.00    +0.000 N 
ATOM     16  C10 ZMR A 466      11.612  52.527  14.207  0.00  0.00    +0.000 C 
ATOM     17  O10 ZMR A 466      10.606  52.945  13.670  0.00  0.00    +0.000 OA
ATOM     18  C11 ZMR A 466      12.562  53.458  14.935  0.00  0.00    +0.000 C 
ATOM     19  H06 ZMR A 466      12.883  51.002  14.581  0.00  0.00    +0.000 HD
ENDBRANCH   4  15
BRANCH   1  20
ATOM     20  C1  ZMR A 466       9.658  46.205  13.201  0.00  0.00    +0.000 C 
ATOM     21  O1A ZMR A 466       8.440  45.950  13.684  0.00  0.00    +0.000 OA
BRANCH  20  22
ATOM     22  O1B ZMR A 466      10.293  45.440  12.546  0.00  0.00    +0.000 OA
ATOM     23  H04 ZMR A 466       9.796  45.201  11.761  0.00  0.00    +0.000 HD
ENDBRANCH  20  22
ENDBRANCH   1  20
BRANCH   5  24
ATOM     24  C7  ZMR A 466      12.973  49.467  12.036  0.00  0.00    +0.000 C 
BRANCH  24  25
ATOM     25  O7  ZMR A 466      12.157  50.114  11.669  0.00  0.00    +0.000 OA
ATOM     26  H07 ZMR A 466      12.489  50.683  10.970  0.00  0.00    +0.000 HD
ENDBRANCH  24  25
BRANCH  24  27
ATOM     27  C8  ZMR A 466      13.594  48.393  11.307  0.00  0.00    +0.000 C 
BRANCH  27  28
ATOM     28  O8  ZMR A 466      14.971  48.781  11.327  0.00  0.00    +0.000 OA
ATOM     29  H08 ZMR A 466      15.515  48.022  11.546  0.00  0.00    +0.000 HD
ENDBRANCH  27  28
BRANCH  27  30
ATOM     30  C9  ZMR A 466      13.129  48.228   9.862  0.00  0.00    +0.000 C 
BRANCH  30  31
ATOM     31  O9  ZMR A 466      11.755  47.842   9.827  0.00  0.00    +0.000 OA
ATOM     32  H09 ZMR A 466      11.221  48.586   9.537  0.00  0.00    +0.000 HD
ENDBRANCH  30  31
ENDBRANCH  27  30
ENDBRANCH  24  27
ENDBRANCH   5  24
TORSDOF 10
ENDMDL
MODEL 4
REMARK VINA RESULT:    -4.654      9.174     10.486
REMARK INTER + INTRA:          -8.396
REMARK INTER:                  -6.865
REMARK INTRA:                  -1.531
REMARK UNBOUND:                -1.565
REMARK  Name = /Users/sarah.hw01/Documents/Master/SS25/SBDD/Project/1A4G-ZMR.pdb
REMARK  10 active torsions:
REMARK  status: ('A' for Active; 'I' for Inactive)
REMARK    1  A    between atoms: NE_1  and  C4_10
REMARK    2  A    between atoms: C1_5  and  O1B_7
REMARK    3  A    between atoms: C1_5  and  C2_8
REMARK    4  A    between atoms: C5_11  and  N5_12
REMARK    5  A    between atoms: C6_13  and  C7_15
REMARK    6  A    between atoms: C7_15  and  O7_16
REMARK    7  A    between atoms: C7_15  and  C8_17
REMARK    8  A    between atoms: C8_17  and  O8_18
REMARK    9  A    between atoms: C8_17  and  C9_19
REMARK   10  A    between atoms: C9_19  and  O9_20
REMARK                            x       y       z     vdW  Elec       q    Type
REMARK                         _______ _______ _______ _____ _____    ______ ____
ROOT
ATOM      1  C2  ZMR A 466      12.259  48.835  11.446  0.00  0.00    +0.000 C 
ATOM      2  C3  ZMR A 466      12.188  50.123  11.823  0.00  0.00    +0.000 C 
ATOM      3  C4  ZMR A 466      11.741  50.500  13.202  0.00  0.00    +0.000 C 
ATOM      4  C5  ZMR A 466      11.760  49.347  14.139  0.00  0.00    +0.000 C 
ATOM      5  C6  ZMR A 466      11.168  48.106  13.407  0.00  0.00    +0.000 C 
ATOM      6  O6  ZMR A 466      11.919  47.829  12.229  0.00  0.00    +0.000 OA
ENDROOT
BRANCH   3   7
ATOM      7  NE  ZMR A 466      12.487  51.603  13.770  0.00  0.00    +0.000 N 
ATOM      8  CZ  ZMR A 466      11.948  52.807  13.945  0.00  0.00    +0.000 C 
ATOM      9  NH1 ZMR A 466      10.731  53.100  13.474  0.00  0.00    +0.000 NA
ATOM     10  NH2 ZMR A 466      12.623  53.700  14.664  0.00  0.00    +0.000 N 
ATOM     11  H01 ZMR A 466      10.213  52.410  12.950  0.00  0.00    +0.000 HD
ATOM     12  H02 ZMR A 466      13.530  53.465  15.039  0.00  0.00    +0.000 HD
ATOM     13  H03 ZMR A 466      12.227  54.614  14.834  0.00  0.00    +0.000 HD
ATOM     14  H05 ZMR A 466      13.448  51.454  14.041  0.00  0.00    +0.000 HD
ENDBRANCH   3   7
BRANCH   4  15
ATOM     15  N5  ZMR A 466      10.946  49.629  15.313  0.00  0.00    +0.000 N 
ATOM     16  C10 ZMR A 466      11.434  50.126  16.453  0.00  0.00    +0.000 C 
ATOM     17  O10 ZMR A 466      12.620  50.251  16.685  0.00  0.00    +0.000 OA
ATOM     18  C11 ZMR A 466      10.386  50.554  17.460  0.00  0.00    +0.000 C 
ATOM     19  H06 ZMR A 466       9.956  49.439  15.262  0.00  0.00    +0.000 HD
ENDBRANCH   4  15
BRANCH   1  20
ATOM     20  C1  ZMR A 466      12.740  48.488  10.098  0.00  0.00    +0.000 C 
ATOM     21  O1A ZMR A 466      12.049  47.566   9.423  0.00  0.00    +0.000 OA
BRANCH  20  22
ATOM     22  O1B ZMR A 466      13.716  49.028   9.684  0.00  0.00    +0.000 OA
ATOM     23  H04 ZMR A 466      13.462  49.785   9.151  0.00  0.00    +0.000 HD
ENDBRANCH  20  22
ENDBRANCH   1  20
BRANCH   5  24
ATOM     24  C7  ZMR A 466      10.926  46.843  14.219  0.00  0.00    +0.000 C 
BRANCH  24  25
ATOM     25  O7  ZMR A 466      11.854  46.468  13.752  0.00  0.00    +0.000 OA
ATOM     26  H07 ZMR A 466      12.412  47.210  13.510  0.00  0.00    +0.000 HD
ENDBRANCH  24  25
BRANCH  24  27
ATOM     27  C8  ZMR A 466       9.618  46.257  14.094  0.00  0.00    +0.000 C 
BRANCH  27  28
ATOM     28  O8  ZMR A 466       9.515  46.066  12.680  0.00  0.00    +0.000 OA
ATOM     29  H08 ZMR A 466       9.110  46.839  12.281  0.00  0.00    +0.000 HD
ENDBRANCH  27  28
BRANCH  27  30
ATOM     30  C9  ZMR A 466       8.461  47.130  14.579  0.00  0.00    +0.000 C 
BRANCH  30  31
ATOM     31  O9  ZMR A 466       8.732  47.623  15.891  0.00  0.00    +0.000 OA
ATOM     32  H09 ZMR A 466       8.040  48.234  16.152  0.00  0.00    +0.000 HD
ENDBRANCH  30  31
ENDBRANCH  27  30
ENDBRANCH  24  27
ENDBRANCH   5  24
TORSDOF 10
ENDMDL
MODEL 5
REMARK VINA RESULT:    -4.536      7.408      9.459
REMARK INTER + INTRA:          -8.222
REMARK INTER:                  -6.593
REMARK INTRA:                  -1.629
REMARK UNBOUND:                -1.565
REMARK  Name = /Users/sarah.hw01/Documents/Master/SS25/SBDD/Project/1A4G-ZMR.pdb
REMARK  10 active torsions:
REMARK  status: ('A' for Active; 'I' for Inactive)
REMARK    1  A    between atoms: NE_1  and  C4_10
REMARK    2  A    between atoms: C1_5  and  O1B_7
REMARK    3  A    between atoms: C1_5  and  C2_8
REMARK    4  A    between atoms: C5_11  and  N5_12
REMARK    5  A    between atoms: C6_13  and  C7_15
REMARK    6  A    between atoms: C7_15  and  O7_16
REMARK    7  A    between atoms: C7_15  and  C8_17
REMARK    8  A    between atoms: C8_17  and  O8_18
REMARK    9  A    between atoms: C8_17  and  C9_19
REMARK   10  A    between atoms: C9_19  and  O9_20
REMARK                            x       y       z     vdW  Elec       q    Type
REMARK                         _______ _______ _______ _____ _____    ______ ____
ROOT
ATOM      1  C2  ZMR A 466      10.471  59.832  12.193  0.00  0.00    +0.000 C 
ATOM      2  C3  ZMR A 466      11.812  59.799  12.245  0.00  0.00    +0.000 C 
ATOM      3  C4  ZMR A 466      12.536  59.839  13.557  0.00  0.00    +0.000 C 
ATOM      4  C5  ZMR A 466      11.641  59.551  14.707  0.00  0.00    +0.000 C 
ATOM      5  C6  ZMR A 466      10.303  60.320  14.496  0.00  0.00    +0.000 C 
ATOM      6  O6  ZMR A 466       9.704  59.932  13.263  0.00  0.00    +0.000 OA
ENDROOT
BRANCH   3   7
ATOM      7  NE  ZMR A 466      13.691  58.969  13.606  0.00  0.00    +0.000 N 
ATOM      8  CZ  ZMR A 466      14.871  59.382  14.062  0.00  0.00    +0.000 C 
ATOM      9  NH1 ZMR A 466      15.089  60.666  14.365  0.00  0.00    +0.000 NA
ATOM     10  NH2 ZMR A 466      15.817  58.472  14.276  0.00  0.00    +0.000 N 
ATOM     11  H01 ZMR A 466      14.359  61.349  14.225  0.00  0.00    +0.000 HD
ATOM     12  H02 ZMR A 466      15.639  57.500  14.070  0.00  0.00    +0.000 HD
ATOM     13  H03 ZMR A 466      16.714  58.754  14.645  0.00  0.00    +0.000 HD
ATOM     14  H05 ZMR A 466      13.598  58.016  13.285  0.00  0.00    +0.000 HD
ENDBRANCH   3   7
BRANCH   4  15
ATOM     15  N5  ZMR A 466      12.247  60.001  15.951  0.00  0.00    +0.000 N 
ATOM     16  C10 ZMR A 466      12.547  59.188  16.968  0.00  0.00    +0.000 C 
ATOM     17  O10 ZMR A 466      12.212  58.022  17.025  0.00  0.00    +0.000 OA
ATOM     18  C11 ZMR A 466      13.375  59.824  18.067  0.00  0.00    +0.000 C 
ATOM     19  H06 ZMR A 466      12.453  60.985  16.051  0.00  0.00    +0.000 HD
ENDBRANCH   4  15
BRANCH   1  20
ATOM     20  C1  ZMR A 466       9.781  59.749  10.894  0.00  0.00    +0.000 C 
ATOM     21  O1A ZMR A 466       8.851  60.672  10.638  0.00  0.00    +0.000 OA
BRANCH  20  22
ATOM     22  O1B ZMR A 466      10.073  58.868  10.149  0.00  0.00    +0.000 OA
ATOM     23  H04 ZMR A 466       9.949  58.024  10.587  0.00  0.00    +0.000 HD
ENDBRANCH  20  22
ENDBRANCH   1  20
BRANCH   5  24
ATOM     24  C7  ZMR A 466       9.288  60.317  15.629  0.00  0.00    +0.000 C 
BRANCH  24  25
ATOM     25  O7  ZMR A 466       9.251  59.224  15.477  0.00  0.00    +0.000 OA
ATOM     26  H07 ZMR A 466      10.057  58.827  15.812  0.00  0.00    +0.000 HD
ENDBRANCH  24  25
BRANCH  24  27
ATOM     27  C8  ZMR A 466       8.185  61.230  15.486  0.00  0.00    +0.000 C 
BRANCH  27  28
ATOM     28  O8  ZMR A 466       7.147  60.366  15.014  0.00  0.00    +0.000 OA
ATOM     29  H08 ZMR A 466       6.913  59.740  15.704  0.00  0.00    +0.000 HD
ENDBRANCH  27  28
BRANCH  27  30
ATOM     30  C9  ZMR A 466       8.400  62.365  14.487  0.00  0.00    +0.000 C 
BRANCH  30  31
ATOM     31  O9  ZMR A 466       7.731  62.076  13.261  0.00  0.00    +0.000 OA
ATOM     32  H09 ZMR A 466       7.367  61.188  13.296  0.00  0.00    +0.000 HD
ENDBRANCH  30  31
ENDBRANCH  27  30
ENDBRANCH  24  27
ENDBRANCH   5  24
TORSDOF 10
ENDMDL
MODEL 6
REMARK VINA RESULT:    -4.506     10.409     12.052
REMARK INTER + INTRA:          -8.179
REMARK INTER:                  -6.439
REMARK INTRA:                  -1.740
REMARK UNBOUND:                -1.565
REMARK  Name = /Users/sarah.hw01/Documents/Master/SS25/SBDD/Project/1A4G-ZMR.pdb
REMARK  10 active torsions:
REMARK  status: ('A' for Active; 'I' for Inactive)
REMARK    1  A    between atoms: NE_1  and  C4_10
REMARK    2  A    between atoms: C1_5  and  O1B_7
REMARK    3  A    between atoms: C1_5  and  C2_8
REMARK    4  A    between atoms: C5_11  and  N5_12
REMARK    5  A    between atoms: C6_13  and  C7_15
REMARK    6  A    between atoms: C7_15  and  O7_16
REMARK    7  A    between atoms: C7_15  and  C8_17
REMARK    8  A    between atoms: C8_17  and  O8_18
REMARK    9  A    between atoms: C8_17  and  C9_19
REMARK   10  A    between atoms: C9_19  and  O9_20
REMARK                            x       y       z     vdW  Elec       q    Type
REMARK                         _______ _______ _______ _____ _____    ______ ____
ROOT
ATOM      1  C2  ZMR A 466      11.543  48.339  12.027  0.00  0.00    +0.000 C 
ATOM      2  C3  ZMR A 466      10.962  47.186  12.396  0.00  0.00    +0.000 C 
ATOM      3  C4  ZMR A 466      10.377  47.020  13.766  0.00  0.00    +0.000 C 
ATOM      4  C5  ZMR A 466      10.193  48.319  14.465  0.00  0.00    +0.000 C 
ATOM      5  C6  ZMR A 466      11.462  49.192  14.226  0.00  0.00    +0.000 C 
ATOM      6  O6  ZMR A 466      11.670  49.379  12.829  0.00  0.00    +0.000 OA
ENDROOT
BRANCH   3   7
ATOM      7  NE  ZMR A 466       9.133  46.280  13.777  0.00  0.00    +0.000 N 
ATOM      8  CZ  ZMR A 466       8.901  45.299  14.645  0.00  0.00    +0.000 C 
ATOM      9  NH1 ZMR A 466       9.861  44.848  15.460  0.00  0.00    +0.000 NA
ATOM     10  NH2 ZMR A 466       7.665  44.815  14.733  0.00  0.00    +0.000 N 
ATOM     11  H01 ZMR A 466      10.792  45.236  15.406  0.00  0.00    +0.000 HD
ATOM     12  H02 ZMR A 466       6.938  45.176  14.133  0.00  0.00    +0.000 HD
ATOM     13  H03 ZMR A 466       7.454  44.086  15.400  0.00  0.00    +0.000 HD
ATOM     14  H05 ZMR A 466       8.418  46.516  13.105  0.00  0.00    +0.000 HD
ENDBRANCH   3   7
BRANCH   4  15
ATOM     15  N5  ZMR A 466      10.033  48.110  15.896  0.00  0.00    +0.000 N 
ATOM     16  C10 ZMR A 466       9.004  48.583  16.605  0.00  0.00    +0.000 C 
ATOM     17  O10 ZMR A 466       8.178  49.358  16.167  0.00  0.00    +0.000 OA
ATOM     18  C11 ZMR A 466       8.917  48.060  18.025  0.00  0.00    +0.000 C 
ATOM     19  H06 ZMR A 466      10.741  47.577  16.382  0.00  0.00    +0.000 HD
ENDBRANCH   4  15
BRANCH   1  20
ATOM     20  C1  ZMR A 466      12.074  48.492  10.661  0.00  0.00    +0.000 C 
ATOM     21  O1A ZMR A 466      13.101  49.330  10.497  0.00  0.00    +0.000 OA
BRANCH  20  22
ATOM     22  O1B ZMR A 466      11.562  47.880   9.778  0.00  0.00    +0.000 OA
ATOM     23  H04 ZMR A 466      11.591  46.942   9.980  0.00  0.00    +0.000 HD
ENDBRANCH  20  22
ENDBRANCH   1  20
BRANCH   5  24
ATOM     24  C7  ZMR A 466      11.582  50.504  14.985  0.00  0.00    +0.000 C 
BRANCH  24  25
ATOM     25  O7  ZMR A 466      10.530  50.670  14.692  0.00  0.00    +0.000 OA
ATOM     26  H07 ZMR A 466      10.250  51.540  14.985  0.00  0.00    +0.000 HD
ENDBRANCH  24  25
BRANCH  24  27
ATOM     27  C8  ZMR A 466      12.702  51.335  14.629  0.00  0.00    +0.000 C 
BRANCH  27  28
ATOM     28  O8  ZMR A 466      13.307  51.574  15.903  0.00  0.00    +0.000 OA
ATOM     29  H08 ZMR A 466      14.244  51.745  15.785  0.00  0.00    +0.000 HD
ENDBRANCH  27  28
BRANCH  27  30
ATOM     30  C9  ZMR A 466      12.344  52.667  13.972  0.00  0.00    +0.000 C 
BRANCH  30  31
ATOM     31  O9  ZMR A 466      11.607  52.443  12.772  0.00  0.00    +0.000 OA
ATOM     32  H09 ZMR A 466      11.553  53.260  12.271  0.00  0.00    +0.000 HD
ENDBRANCH  30  31
ENDBRANCH  27  30
ENDBRANCH  24  27
ENDBRANCH   5  24
TORSDOF 10
ENDMDL
MODEL 7
REMARK VINA RESULT:    -4.458     10.913     12.736
REMARK INTER + INTRA:          -8.108
REMARK INTER:                  -6.711
REMARK INTRA:                  -1.398
REMARK UNBOUND:                -1.565
REMARK  Name = /Users/sarah.hw01/Documents/Master/SS25/SBDD/Project/1A4G-ZMR.pdb
REMARK  10 active torsions:
REMARK  status: ('A' for Active; 'I' for Inactive)
REMARK    1  A    between atoms: NE_1  and  C4_10
REMARK    2  A    between atoms: C1_5  and  O1B_7
REMARK    3  A    between atoms: C1_5  and  C2_8
REMARK    4  A    between atoms: C5_11  and  N5_12
REMARK    5  A    between atoms: C6_13  and  C7_15
REMARK    6  A    between atoms: C7_15  and  O7_16
REMARK    7  A    between atoms: C7_15  and  C8_17
REMARK    8  A    between atoms: C8_17  and  O8_18
REMARK    9  A    between atoms: C8_17  and  C9_19
REMARK   10  A    between atoms: C9_19  and  O9_20
REMARK                            x       y       z     vdW  Elec       q    Type
REMARK                         _______ _______ _______ _____ _____    ______ ____
ROOT
ATOM      1  C2  ZMR A 466      11.473  50.401  13.922  0.00  0.00    +0.000 C 
ATOM      2  C3  ZMR A 466      11.858  49.267  13.315  0.00  0.00    +0.000 C 
ATOM      3  C4  ZMR A 466      11.135  47.977  13.558  0.00  0.00    +0.000 C 
ATOM      4  C5  ZMR A 466       9.811  48.182  14.201  0.00  0.00    +0.000 C 
ATOM      5  C6  ZMR A 466       9.969  49.248  15.327  0.00  0.00    +0.000 C 
ATOM      6  O6  ZMR A 466      10.475  50.463  14.783  0.00  0.00    +0.000 OA
ENDROOT
BRANCH   3   7
ATOM      7  NE  ZMR A 466      10.980  47.168  12.368  0.00  0.00    +0.000 N 
ATOM      8  CZ  ZMR A 466      11.736  46.100  12.134  0.00  0.00    +0.000 C 
ATOM      9  NH1 ZMR A 466      12.777  45.798  12.918  0.00  0.00    +0.000 NA
ATOM     10  NH2 ZMR A 466      11.393  45.291  11.135  0.00  0.00    +0.000 N 
ATOM     11  H01 ZMR A 466      13.018  46.402  13.691  0.00  0.00    +0.000 HD
ATOM     12  H02 ZMR A 466      10.591  45.509  10.562  0.00  0.00    +0.000 HD
ATOM     13  H03 ZMR A 466      11.934  44.459  10.950  0.00  0.00    +0.000 HD
ATOM     14  H05 ZMR A 466      10.274  47.424  11.692  0.00  0.00    +0.000 HD
ENDBRANCH   3   7
BRANCH   4  15
ATOM     15  N5  ZMR A 466       9.334  46.942  14.795  0.00  0.00    +0.000 N 
ATOM     16  C10 ZMR A 466       8.080  46.496  14.678  0.00  0.00    +0.000 C 
ATOM     17  O10 ZMR A 466       7.173  47.145  14.198  0.00  0.00    +0.000 OA
ATOM     18  C11 ZMR A 466       7.859  45.083  15.177  0.00  0.00    +0.000 C 
ATOM     19  H06 ZMR A 466       9.990  46.386  15.326  0.00  0.00    +0.000 HD
ENDBRANCH   4  15
BRANCH   1  20
ATOM     20  C1  ZMR A 466      12.174  51.665  13.635  0.00  0.00    +0.000 C 
ATOM     21  O1A ZMR A 466      13.320  51.887  14.284  0.00  0.00    +0.000 OA
BRANCH  20  22
ATOM     22  O1B ZMR A 466      11.687  52.424  12.859  0.00  0.00    +0.000 OA
ATOM     23  H04 ZMR A 466      10.738  52.458  12.997  0.00  0.00    +0.000 HD
ENDBRANCH  20  22
ENDBRANCH   1  20
BRANCH   5  24
ATOM     24  C7  ZMR A 466       8.782  49.503  16.243  0.00  0.00    +0.000 C 
BRANCH  24  25
ATOM     25  O7  ZMR A 466       8.263  49.848  15.332  0.00  0.00    +0.000 OA
ATOM     26  H07 ZMR A 466       7.318  49.885  15.496  0.00  0.00    +0.000 HD
ENDBRANCH  24  25
BRANCH  24  27
ATOM     27  C8  ZMR A 466       9.052  50.294  17.415  0.00  0.00    +0.000 C 
BRANCH  27  28
ATOM     28  O8  ZMR A 466       8.131  49.742  18.360  0.00  0.00    +0.000 OA
ATOM     29  H08 ZMR A 466       8.616  49.364  19.097  0.00  0.00    +0.000 HD
ENDBRANCH  27  28
BRANCH  27  30
ATOM     30  C9  ZMR A 466       8.797  51.792  17.265  0.00  0.00    +0.000 C 
BRANCH  30  31
ATOM     31  O9  ZMR A 466       9.984  52.453  16.829  0.00  0.00    +0.000 OA
ATOM     32  H09 ZMR A 466       9.757  53.311  16.462  0.00  0.00    +0.000 HD
ENDBRANCH  30  31
ENDBRANCH  27  30
ENDBRANCH  24  27
ENDBRANCH   5  24
TORSDOF 10
ENDMDL
MODEL 8
REMARK VINA RESULT:    -4.392      9.704     11.202
REMARK INTER + INTRA:          -8.011
REMARK INTER:                  -6.629
REMARK INTRA:                  -1.382
REMARK UNBOUND:                -1.565
REMARK  Name = /Users/sarah.hw01/Documents/Master/SS25/SBDD/Project/1A4G-ZMR.pdb
REMARK  10 active torsions:
REMARK  status: ('A' for Active; 'I' for Inactive)
REMARK    1  A    between atoms: NE_1  and  C4_10
REMARK    2  A    between atoms: C1_5  and  O1B_7
REMARK    3  A    between atoms: C1_5  and  C2_8
REMARK    4  A    between atoms: C5_11  and  N5_12
REMARK    5  A    between atoms: C6_13  and  C7_15
REMARK    6  A    between atoms: C7_15  and  O7_16
REMARK    7  A    between atoms: C7_15  and  C8_17
REMARK    8  A    between atoms: C8_17  and  O8_18
REMARK    9  A    between atoms: C8_17  and  C9_19
REMARK   10  A    between atoms: C9_19  and  O9_20
REMARK                            x       y       z     vdW  Elec       q    Type
REMARK                         _______ _______ _______ _____ _____    ______ ____
ROOT
ATOM      1  C2  ZMR A 466      11.855  48.744  11.888  0.00  0.00    +0.000 C 
ATOM      2  C3  ZMR A 466      11.065  47.852  12.508  0.00  0.00    +0.000 C 
ATOM      3  C4  ZMR A 466      10.550  48.107  13.892  0.00  0.00    +0.000 C 
ATOM      4  C5  ZMR A 466      10.697  49.529  14.297  0.00  0.00    +0.000 C 
ATOM      5  C6  ZMR A 466      12.104  50.027  13.852  0.00  0.00    +0.000 C 
ATOM      6  O6  ZMR A 466      12.256  49.872  12.444  0.00  0.00    +0.000 OA
ENDROOT
BRANCH   3   7
ATOM      7  NE  ZMR A 466       9.180  47.683  14.086  0.00  0.00    +0.000 N 
ATOM      8  CZ  ZMR A 466       8.864  46.632  14.837  0.00  0.00    +0.000 C 
ATOM      9  NH1 ZMR A 466       9.806  45.826  15.338  0.00  0.00    +0.000 NA
ATOM     10  NH2 ZMR A 466       7.583  46.436  15.139  0.00  0.00    +0.000 N 
ATOM     11  H01 ZMR A 466      10.779  45.993  15.126  0.00  0.00    +0.000 HD
ATOM     12  H02 ZMR A 466       6.878  47.063  14.780  0.00  0.00    +0.000 HD
ATOM     13  H03 ZMR A 466       7.317  45.660  15.728  0.00  0.00    +0.000 HD
ATOM     14  H05 ZMR A 466       8.440  48.202  13.635  0.00  0.00    +0.000 HD
ENDBRANCH   3   7
BRANCH   4  15
ATOM     15  N5  ZMR A 466      10.590  49.661  15.743  0.00  0.00    +0.000 N 
ATOM     16  C10 ZMR A 466       9.456  49.968  16.380  0.00  0.00    +0.000 C 
ATOM     17  O10 ZMR A 466       8.437  50.315  15.818  0.00  0.00    +0.000 OA
ATOM     18  C11 ZMR A 466       9.517  49.830  17.887  0.00  0.00    +0.000 C 
ATOM     19  H06 ZMR A 466      11.422  49.513  16.297  0.00  0.00    +0.000 HD
ENDBRANCH   4  15
BRANCH   1  20
ATOM     20  C1  ZMR A 466      12.315  48.490  10.511  0.00  0.00    +0.000 C 
ATOM     21  O1A ZMR A 466      13.487  49.020  10.153  0.00  0.00    +0.000 OA
BRANCH  20  22
ATOM     22  O1B ZMR A 466      11.625  47.842   9.790  0.00  0.00    +0.000 OA
ATOM     23  H04 ZMR A 466      11.934  46.934   9.781  0.00  0.00    +0.000 HD
ENDBRANCH  20  22
ENDBRANCH   1  20
BRANCH   5  24
ATOM     24  C7  ZMR A 466      12.553  51.407  14.308  0.00  0.00    +0.000 C 
BRANCH  24  25
ATOM     25  O7  ZMR A 466      13.007  50.881  15.167  0.00  0.00    +0.000 OA
ATOM     26  H07 ZMR A 466      12.915  49.934  15.046  0.00  0.00    +0.000 HD
ENDBRANCH  24  25
BRANCH  24  27
ATOM     27  C8  ZMR A 466      11.524  52.411  14.377  0.00  0.00    +0.000 C 
BRANCH  27  28
ATOM     28  O8  ZMR A 466      11.352  52.750  12.998  0.00  0.00    +0.000 OA
ATOM     29  H08 ZMR A 466      12.211  52.885  12.591  0.00  0.00    +0.000 HD
ENDBRANCH  27  28
BRANCH  27  30
ATOM     30  C9  ZMR A 466      11.886  53.664  15.172  0.00  0.00    +0.000 C 
BRANCH  30  31
ATOM     31  O9  ZMR A 466      13.282  53.937  15.054  0.00  0.00    +0.000 OA
ATOM     32  H09 ZMR A 466      13.504  54.074  14.130  0.00  0.00    +0.000 HD
ENDBRANCH  30  31
ENDBRANCH  27  30
ENDBRANCH  24  27
ENDBRANCH   5  24
TORSDOF 10
ENDMDL
MODEL 9
REMARK VINA RESULT:    -4.251      9.900     11.949
REMARK INTER + INTRA:          -7.804
REMARK INTER:                  -6.507
REMARK INTRA:                  -1.297
REMARK UNBOUND:                -1.565
REMARK  Name = /Users/sarah.hw01/Documents/Master/SS25/SBDD/Project/1A4G-ZMR.pdb
REMARK  10 active torsions:
REMARK  status: ('A' for Active; 'I' for Inactive)
REMARK    1  A    between atoms: NE_1  and  C4_10
REMARK    2  A    between atoms: C1_5  and  O1B_7
REMARK    3  A    between atoms: C1_5  and  C2_8
REMARK    4  A    between atoms: C5_11  and  N5_12
REMARK    5  A    between atoms: C6_13  and  C7_15
REMARK    6  A    between atoms: C7_15  and  O7_16
REMARK    7  A    between atoms: C7_15  and  C8_17
REMARK    8  A    between atoms: C8_17  and  O8_18
REMARK    9  A    between atoms: C8_17  and  C9_19
REMARK   10  A    between atoms: C9_19  and  O9_20
REMARK                            x       y       z     vdW  Elec       q    Type
REMARK                         _______ _______ _______ _____ _____    ______ ____
ROOT
ATOM      1  C2  ZMR A 466       9.471  47.839  14.347  0.00  0.00    +0.000 C 
ATOM      2  C3  ZMR A 466       9.820  47.264  13.185  0.00  0.00    +0.000 C 
ATOM      3  C4  ZMR A 466      11.113  47.609  12.509  0.00  0.00    +0.000 C 
ATOM      4  C5  ZMR A 466      12.053  48.318  13.415  0.00  0.00    +0.000 C 
ATOM      5  C6  ZMR A 466      11.253  49.382  14.225  0.00  0.00    +0.000 C 
ATOM      6  O6  ZMR A 466      10.204  48.753  14.955  0.00  0.00    +0.000 OA
ENDROOT
BRANCH   3   7
ATOM      7  NE  ZMR A 466      11.775  46.470  11.912  0.00  0.00    +0.000 N 
ATOM      8  CZ  ZMR A 466      12.208  46.481  10.655  0.00  0.00    +0.000 C 
ATOM      9  NH1 ZMR A 466      11.926  47.496   9.830  0.00  0.00    +0.000 NA
ATOM     10  NH2 ZMR A 466      12.991  45.485  10.249  0.00  0.00    +0.000 N 
ATOM     11  H01 ZMR A 466      11.352  48.262  10.151  0.00  0.00    +0.000 HD
ATOM     12  H02 ZMR A 466      13.222  44.734  10.883  0.00  0.00    +0.000 HD
ATOM     13  H03 ZMR A 466      13.354  45.480   9.306  0.00  0.00    +0.000 HD
ATOM     14  H05 ZMR A 466      11.913  45.638  12.469  0.00  0.00    +0.000 HD
ENDBRANCH   3   7
BRANCH   4  15
ATOM     15  N5  ZMR A 466      13.088  48.997  12.648  0.00  0.00    +0.000 N 
ATOM     16  C10 ZMR A 466      14.391  48.724  12.755  0.00  0.00    +0.000 C 
ATOM     17  O10 ZMR A 466      14.863  47.995  13.604  0.00  0.00    +0.000 OA
ATOM     18  C11 ZMR A 466      15.266  49.382  11.707  0.00  0.00    +0.000 C 
ATOM     19  H06 ZMR A 466      12.803  49.715  11.997  0.00  0.00    +0.000 HD
ENDBRANCH   4  15
BRANCH   1  20
ATOM     20  C1  ZMR A 466       8.215  47.453  15.013  0.00  0.00    +0.000 C 
ATOM     21  O1A ZMR A 466       7.346  46.730  14.301  0.00  0.00    +0.000 OA
BRANCH  20  22
ATOM     22  O1B ZMR A 466       8.030  47.809  16.133  0.00  0.00    +0.000 OA
ATOM     23  H04 ZMR A 466       8.120  47.060  16.726  0.00  0.00    +0.000 HD
ENDBRANCH  20  22
ENDBRANCH   1  20
BRANCH   5  24
ATOM     24  C7  ZMR A 466      12.032  50.353  15.099  0.00  0.00    +0.000 C 
BRANCH  24  25
ATOM     25  O7  ZMR A 466      11.824  49.645  15.920  0.00  0.00    +0.000 OA
ATOM     26  H07 ZMR A 466      11.346  48.887  15.577  0.00  0.00    +0.000 HD
ENDBRANCH  24  25
BRANCH  24  27
ATOM     27  C8  ZMR A 466      11.611  51.728  15.039  0.00  0.00    +0.000 C 
BRANCH  27  28
ATOM     28  O8  ZMR A 466      10.217  51.622  15.343  0.00  0.00    +0.000 OA
ATOM     29  H08 ZMR A 466      10.098  51.590  16.295  0.00  0.00    +0.000 HD
ENDBRANCH  27  28
BRANCH  27  30
ATOM     30  C9  ZMR A 466      11.790  52.408  13.683  0.00  0.00    +0.000 C 
BRANCH  30  31
ATOM     31  O9  ZMR A 466      10.615  53.142  13.342  0.00  0.00    +0.000 OA
ATOM     32  H09 ZMR A 466      10.302  53.621  14.112  0.00  0.00    +0.000 HD
ENDBRANCH  30  31
ENDBRANCH  27  30
ENDBRANCH  24  27
ENDBRANCH   5  24
TORSDOF 10
ENDMDL
