MODEL 1
REMARK VINA RESULT:    -5.114      0.000      0.000
REMARK INTER + INTRA:          -9.042
REMARK INTER:                  -7.506
REMARK INTRA:                  -1.536
REMARK UNBOUND:                -1.536
REMARK  Name = /Users/sarah.hw01/Documents/Master/SS25/SBDD/Project/1A4G-ZMR.pdb
REMARK  10 active torsions:
REMARK  status: ('A' for Active; 'I' for Inactive)
REMARK    1  A    between atoms: NE_1  and  C4_10
REMARK    2  A    between atoms: C1_5  and  O1B_7
REMARK    3  A    between atoms: C1_5  and  C2_8
REMARK    4  A    between atoms: C5_11  and  N5_12
REMARK    5  A    between atoms: C6_13  and  C7_15
REMARK    6  A    between atoms: C7_15  and  O7_16
REMARK    7  A    between atoms: C7_15  and  C8_17
REMARK    8  A    between atoms: C8_17  and  O8_18
REMARK    9  A    between atoms: C8_17  and  C9_19
REMARK   10  A    between atoms: C9_19  and  O9_20
REMARK                            x       y       z     vdW  Elec       q    Type
REMARK                         _______ _______ _______ _____ _____    ______ ____
ROOT
ATOM      1  C2  ZMR A 466      17.844  56.651   9.233  0.00  0.00    +0.000 C 
ATOM      2  C3  ZMR A 466      17.102  57.530   9.927  0.00  0.00    +0.000 C 
ATOM      3  C4  ZMR A 466      17.265  57.677  11.409  0.00  0.00    +0.000 C 
ATOM      4  C5  ZMR A 466      18.520  57.055  11.906  0.00  0.00    +0.000 C 
ATOM      5  C6  ZMR A 466      18.699  55.676  11.204  0.00  0.00    +0.000 C 
ATOM      6  O6  ZMR A 466      18.729  55.846   9.790  0.00  0.00    +0.000 OA
ENDROOT
BRANCH   3   7
ATOM      7  NE  ZMR A 466      17.186  59.048  11.866  0.00  0.00    +0.000 N 
ATOM      8  CZ  ZMR A 466      16.404  59.413  12.878  0.00  0.00    +0.000 C 
ATOM      9  NH1 ZMR A 466      15.541  58.557  13.435  0.00  0.00    +0.000 NA
ATOM     10  NH2 ZMR A 466      16.546  60.640  13.374  0.00  0.00    +0.000 N 
ATOM     11  H01 ZMR A 466      15.454  57.619  13.072  0.00  0.00    +0.000 HD
ATOM     12  H02 ZMR A 466      17.217  61.274  12.966  0.00  0.00    +0.000 HD
ATOM     13  H03 ZMR A 466      15.983  60.936  14.158  0.00  0.00    +0.000 HD
ATOM     14  H05 ZMR A 466      17.742  59.751  11.401  0.00  0.00    +0.000 HD
ENDBRANCH   3   7
BRANCH   4  15
ATOM     15  N5  ZMR A 466      18.450  56.842  13.344  0.00  0.00    +0.000 N 
ATOM     16  C10 ZMR A 466      19.287  57.406  14.220  0.00  0.00    +0.000 C 
ATOM     17  O10 ZMR A 466      20.280  58.029  13.903  0.00  0.00    +0.000 OA
ATOM     18  C11 ZMR A 466      18.897  57.232  15.674  0.00  0.00    +0.000 C 
ATOM     19  H06 ZMR A 466      17.727  56.234  13.700  0.00  0.00    +0.000 HD
ENDBRANCH   4  15
BRANCH   1  20
ATOM     20  C1  ZMR A 466      17.695  56.553   7.771  0.00  0.00    +0.000 C 
ATOM     21  O1A ZMR A 466      17.075  57.562   7.153  0.00  0.00    +0.000 OA
BRANCH  20  22
ATOM     22  O1B ZMR A 466      18.116  55.588   7.217  0.00  0.00    +0.000 OA
ATOM     23  H04 ZMR A 466      17.635  54.813   7.514  0.00  0.00    +0.000 HD
ENDBRANCH  20  22
ENDBRANCH   1  20
BRANCH   5  24
ATOM     24  C7  ZMR A 466      19.828  54.773  11.677  0.00  0.00    +0.000 C 
BRANCH  24  25
ATOM     25  O7  ZMR A 466      20.439  55.280  10.911  0.00  0.00    +0.000 OA
ATOM     26  H07 ZMR A 466      21.369  55.184  11.128  0.00  0.00    +0.000 HD
ENDBRANCH  24  25
BRANCH  24  27
ATOM     27  C8  ZMR A 466      19.527  53.366  11.727  0.00  0.00    +0.000 C 
BRANCH  27  28
ATOM     28  O8  ZMR A 466      18.205  53.329  11.182  0.00  0.00    +0.000 OA
ATOM     29  H08 ZMR A 466      17.625  52.854  11.781  0.00  0.00    +0.000 HD
ENDBRANCH  27  28
BRANCH  27  30
ATOM     30  C9  ZMR A 466      19.524  52.747  13.124  0.00  0.00    +0.000 C 
BRANCH  30  31
ATOM     31  O9  ZMR A 466      18.976  53.666  14.068  0.00  0.00    +0.000 OA
ATOM     32  H09 ZMR A 466      18.513  53.181  14.755  0.00  0.00    +0.000 HD
ENDBRANCH  30  31
ENDBRANCH  27  30
ENDBRANCH  24  27
ENDBRANCH   5  24
TORSDOF 10
ENDMDL
MODEL 2
REMARK VINA RESULT:    -4.814      9.298     11.531
REMARK INTER + INTRA:          -8.600
REMARK INTER:                  -6.877
REMARK INTRA:                  -1.723
REMARK UNBOUND:                -1.536
REMARK  Name = /Users/sarah.hw01/Documents/Master/SS25/SBDD/Project/1A4G-ZMR.pdb
REMARK  10 active torsions:
REMARK  status: ('A' for Active; 'I' for Inactive)
REMARK    1  A    between atoms: NE_1  and  C4_10
REMARK    2  A    between atoms: C1_5  and  O1B_7
REMARK    3  A    between atoms: C1_5  and  C2_8
REMARK    4  A    between atoms: C5_11  and  N5_12
REMARK    5  A    between atoms: C6_13  and  C7_15
REMARK    6  A    between atoms: C7_15  and  O7_16
REMARK    7  A    between atoms: C7_15  and  C8_17
REMARK    8  A    between atoms: C8_17  and  O8_18
REMARK    9  A    between atoms: C8_17  and  C9_19
REMARK   10  A    between atoms: C9_19  and  O9_20
REMARK                            x       y       z     vdW  Elec       q    Type
REMARK                         _______ _______ _______ _____ _____    ______ ____
ROOT
ATOM      1  C2  ZMR A 466       8.252  62.352  12.881  0.00  0.00    +0.000 C 
ATOM      2  C3  ZMR A 466       7.668  62.966  11.838  0.00  0.00    +0.000 C 
ATOM      3  C4  ZMR A 466       8.012  62.590  10.429  0.00  0.00    +0.000 C 
ATOM      4  C5  ZMR A 466       8.732  61.293  10.349  0.00  0.00    +0.000 C 
ATOM      5  C6  ZMR A 466       9.800  61.249  11.482  0.00  0.00    +0.000 C 
ATOM      6  O6  ZMR A 466       9.173  61.417  12.751  0.00  0.00    +0.000 OA
ENDROOT
BRANCH   3   7
ATOM      7  NE  ZMR A 466       6.869  62.571   9.541  0.00  0.00    +0.000 N 
ATOM      8  CZ  ZMR A 466       6.890  63.157   8.347  0.00  0.00    +0.000 C 
ATOM      9  NH1 ZMR A 466       7.920  63.918   7.963  0.00  0.00    +0.000 NA
ATOM     10  NH2 ZMR A 466       5.887  62.914   7.508  0.00  0.00    +0.000 N 
ATOM     11  H01 ZMR A 466       8.692  64.079   8.594  0.00  0.00    +0.000 HD
ATOM     12  H02 ZMR A 466       5.123  62.317   7.794  0.00  0.00    +0.000 HD
ATOM     13  H03 ZMR A 466       5.888  63.325   6.586  0.00  0.00    +0.000 HD
ATOM     14  H05 ZMR A 466       6.028  62.097   9.838  0.00  0.00    +0.000 HD
ENDBRANCH   3   7
BRANCH   4  15
ATOM     15  N5  ZMR A 466       9.407  61.162   9.066  0.00  0.00    +0.000 N 
ATOM     16  C10 ZMR A 466       9.066  60.267   8.134  0.00  0.00    +0.000 C 
ATOM     17  O10 ZMR A 466       8.263  59.374   8.315  0.00  0.00    +0.000 OA
ATOM     18  C11 ZMR A 466       9.747  60.455   6.793  0.00  0.00    +0.000 C 
ATOM     19  H06 ZMR A 466      10.178  61.785   8.868  0.00  0.00    +0.000 HD
ENDBRANCH   4  15
BRANCH   1  20
ATOM     20  C1  ZMR A 466       7.867  62.711  14.257  0.00  0.00    +0.000 C 
ATOM     21  O1A ZMR A 466       8.563  63.684  14.851  0.00  0.00    +0.000 OA
BRANCH  20  22
ATOM     22  O1B ZMR A 466       6.974  62.117  14.772  0.00  0.00    +0.000 OA
ATOM     23  H04 ZMR A 466       6.721  61.375  14.219  0.00  0.00    +0.000 HD
ENDBRANCH  20  22
ENDBRANCH   1  20
BRANCH   5  24
ATOM     24  C7  ZMR A 466      10.780  60.087  11.498  0.00  0.00    +0.000 C 
BRANCH  24  25
ATOM     25  O7  ZMR A 466       9.889  59.449  11.630  0.00  0.00    +0.000 OA
ATOM     26  H07 ZMR A 466       9.384  59.432  10.815  0.00  0.00    +0.000 HD
ENDBRANCH  24  25
BRANCH  24  27
ATOM     27  C8  ZMR A 466      11.881  60.207  12.418  0.00  0.00    +0.000 C 
BRANCH  27  28
ATOM     28  O8  ZMR A 466      12.990  59.819  11.602  0.00  0.00    +0.000 OA
ATOM     29  H08 ZMR A 466      13.598  59.288  12.120  0.00  0.00    +0.000 HD
ENDBRANCH  27  28
BRANCH  27  30
ATOM     30  C9  ZMR A 466      11.807  59.302  13.647  0.00  0.00    +0.000 C 
BRANCH  30  31
ATOM     31  O9  ZMR A 466      10.740  59.716  14.500  0.00  0.00    +0.000 OA
ATOM     32  H09 ZMR A 466      10.822  60.655  14.681  0.00  0.00    +0.000 HD
ENDBRANCH  30  31
ENDBRANCH  27  30
ENDBRANCH  24  27
ENDBRANCH   5  24
TORSDOF 10
ENDMDL
MODEL 3
REMARK VINA RESULT:    -4.720      2.553      4.923
REMARK INTER + INTRA:          -8.463
REMARK INTER:                  -6.720
REMARK INTRA:                  -1.743
REMARK UNBOUND:                -1.536
REMARK  Name = /Users/sarah.hw01/Documents/Master/SS25/SBDD/Project/1A4G-ZMR.pdb
REMARK  10 active torsions:
REMARK  status: ('A' for Active; 'I' for Inactive)
REMARK    1  A    between atoms: NE_1  and  C4_10
REMARK    2  A    between atoms: C1_5  and  O1B_7
REMARK    3  A    between atoms: C1_5  and  C2_8
REMARK    4  A    between atoms: C5_11  and  N5_12
REMARK    5  A    between atoms: C6_13  and  C7_15
REMARK    6  A    between atoms: C7_15  and  O7_16
REMARK    7  A    between atoms: C7_15  and  C8_17
REMARK    8  A    between atoms: C8_17  and  O8_18
REMARK    9  A    between atoms: C8_17  and  C9_19
REMARK   10  A    between atoms: C9_19  and  O9_20
REMARK                            x       y       z     vdW  Elec       q    Type
REMARK                         _______ _______ _______ _____ _____    ______ ____
ROOT
ATOM      1  C2  ZMR A 466      17.782  56.621   9.677  0.00  0.00    +0.000 C 
ATOM      2  C3  ZMR A 466      18.547  55.519   9.736  0.00  0.00    +0.000 C 
ATOM      3  C4  ZMR A 466      19.256  55.138  11.001  0.00  0.00    +0.000 C 
ATOM      4  C5  ZMR A 466      18.731  55.865  12.185  0.00  0.00    +0.000 C 
ATOM      5  C6  ZMR A 466      18.519  57.358  11.795  0.00  0.00    +0.000 C 
ATOM      6  O6  ZMR A 466      17.623  57.452  10.690  0.00  0.00    +0.000 OA
ENDROOT
BRANCH   3   7
ATOM      7  NE  ZMR A 466      19.250  53.714  11.259  0.00  0.00    +0.000 N 
ATOM      8  CZ  ZMR A 466      20.356  53.048  11.583  0.00  0.00    +0.000 C 
ATOM      9  NH1 ZMR A 466      21.557  53.635  11.547  0.00  0.00    +0.000 NA
ATOM     10  NH2 ZMR A 466      20.234  51.795  12.013  0.00  0.00    +0.000 N 
ATOM     11  H01 ZMR A 466      21.642  54.594  11.244  0.00  0.00    +0.000 HD
ATOM     12  H02 ZMR A 466      19.322  51.365  12.063  0.00  0.00    +0.000 HD
ATOM     13  H03 ZMR A 466      21.053  51.274  12.289  0.00  0.00    +0.000 HD
ATOM     14  H05 ZMR A 466      18.378  53.209  11.192  0.00  0.00    +0.000 HD
ENDBRANCH   3   7
BRANCH   4  15
ATOM     15  N5  ZMR A 466      19.682  55.801  13.286  0.00  0.00    +0.000 N 
ATOM     16  C10 ZMR A 466      19.403  55.268  14.479  0.00  0.00    +0.000 C 
ATOM     17  O10 ZMR A 466      18.291  54.920  14.822  0.00  0.00    +0.000 OA
ATOM     18  C11 ZMR A 466      20.598  55.100  15.395  0.00  0.00    +0.000 C 
ATOM     19  H06 ZMR A 466      20.606  56.182  13.139  0.00  0.00    +0.000 HD
ENDBRANCH   4  15
BRANCH   1  20
ATOM     20  C1  ZMR A 466      17.062  56.953   8.435  0.00  0.00    +0.000 C 
ATOM     21  O1A ZMR A 466      17.231  58.182   7.943  0.00  0.00    +0.000 OA
BRANCH  20  22
ATOM     22  O1B ZMR A 466      16.364  56.124   7.942  0.00  0.00    +0.000 OA
ATOM     23  H04 ZMR A 466      15.447  56.400   8.005  0.00  0.00    +0.000 HD
ENDBRANCH  20  22
ENDBRANCH   1  20
BRANCH   5  24
ATOM     24  C7  ZMR A 466      18.146  58.340  12.894  0.00  0.00    +0.000 C 
BRANCH  24  25
ATOM     25  O7  ZMR A 466      17.453  57.555  13.243  0.00  0.00    +0.000 OA
ATOM     26  H07 ZMR A 466      16.737  57.957  13.739  0.00  0.00    +0.000 HD
ENDBRANCH  24  25
BRANCH  24  27
ATOM     27  C8  ZMR A 466      17.778  59.661  12.458  0.00  0.00    +0.000 C 
BRANCH  27  28
ATOM     28  O8  ZMR A 466      18.611  60.485  13.280  0.00  0.00    +0.000 OA
ATOM     29  H08 ZMR A 466      18.482  60.252  14.202  0.00  0.00    +0.000 HD
ENDBRANCH  27  28
BRANCH  27  30
ATOM     30  C9  ZMR A 466      16.313  60.037  12.672  0.00  0.00    +0.000 C 
BRANCH  30  31
ATOM     31  O9  ZMR A 466      15.472  59.227  11.852  0.00  0.00    +0.000 OA
ATOM     32  H09 ZMR A 466      15.460  59.579  10.959  0.00  0.00    +0.000 HD
ENDBRANCH  30  31
ENDBRANCH  27  30
ENDBRANCH  24  27
ENDBRANCH   5  24
TORSDOF 10
ENDMDL
MODEL 4
REMARK VINA RESULT:    -4.688      9.375     10.954
REMARK INTER + INTRA:          -8.416
REMARK INTER:                  -6.765
REMARK INTRA:                  -1.650
REMARK UNBOUND:                -1.536
REMARK  Name = /Users/sarah.hw01/Documents/Master/SS25/SBDD/Project/1A4G-ZMR.pdb
REMARK  10 active torsions:
REMARK  status: ('A' for Active; 'I' for Inactive)
REMARK    1  A    between atoms: NE_1  and  C4_10
REMARK    2  A    between atoms: C1_5  and  O1B_7
REMARK    3  A    between atoms: C1_5  and  C2_8
REMARK    4  A    between atoms: C5_11  and  N5_12
REMARK    5  A    between atoms: C6_13  and  C7_15
REMARK    6  A    between atoms: C7_15  and  O7_16
REMARK    7  A    between atoms: C7_15  and  C8_17
REMARK    8  A    between atoms: C8_17  and  O8_18
REMARK    9  A    between atoms: C8_17  and  C9_19
REMARK   10  A    between atoms: C9_19  and  O9_20
REMARK                            x       y       z     vdW  Elec       q    Type
REMARK                         _______ _______ _______ _____ _____    ______ ____
ROOT
ATOM      1  C2  ZMR A 466      10.249  47.467  13.510  0.00  0.00    +0.000 C 
ATOM      2  C3  ZMR A 466       9.816  48.144  14.586  0.00  0.00    +0.000 C 
ATOM      3  C4  ZMR A 466      10.363  49.499  14.919  0.00  0.00    +0.000 C 
ATOM      4  C5  ZMR A 466      11.099  50.107  13.781  0.00  0.00    +0.000 C 
ATOM      5  C6  ZMR A 466      11.992  49.011  13.127  0.00  0.00    +0.000 C 
ATOM      6  O6  ZMR A 466      11.188  47.916  12.699  0.00  0.00    +0.000 OA
ENDROOT
BRANCH   3   7
ATOM      7  NE  ZMR A 466       9.361  50.424  15.403  0.00  0.00    +0.000 N 
ATOM      8  CZ  ZMR A 466       9.289  50.785  16.681  0.00  0.00    +0.000 C 
ATOM      9  NH1 ZMR A 466      10.050  50.202  17.613  0.00  0.00    +0.000 NA
ATOM     10  NH2 ZMR A 466       8.486  51.794  17.006  0.00  0.00    +0.000 N 
ATOM     11  H01 ZMR A 466      10.677  49.453  17.357  0.00  0.00    +0.000 HD
ATOM     12  H02 ZMR A 466       7.932  52.248  16.294  0.00  0.00    +0.000 HD
ATOM     13  H03 ZMR A 466       8.430  52.106  17.965  0.00  0.00    +0.000 HD
ATOM     14  H05 ZMR A 466       8.694  50.807  14.749  0.00  0.00    +0.000 HD
ENDBRANCH   3   7
BRANCH   4  15
ATOM     15  N5  ZMR A 466      11.954  51.190  14.245  0.00  0.00    +0.000 N 
ATOM     16  C10 ZMR A 466      11.613  52.481  14.192  0.00  0.00    +0.000 C 
ATOM     17  O10 ZMR A 466      10.628  52.898  13.616  0.00  0.00    +0.000 OA
ATOM     18  C11 ZMR A 466      12.547  53.416  14.933  0.00  0.00    +0.000 C 
ATOM     19  H06 ZMR A 466      12.856  50.952  14.631  0.00  0.00    +0.000 HD
ENDBRANCH   4  15
BRANCH   1  20
ATOM     20  C1  ZMR A 466       9.666  46.155  13.181  0.00  0.00    +0.000 C 
ATOM     21  O1A ZMR A 466       8.449  45.890  13.663  0.00  0.00    +0.000 OA
BRANCH  20  22
ATOM     22  O1B ZMR A 466      10.304  45.397  12.520  0.00  0.00    +0.000 OA
ATOM     23  H04 ZMR A 466      10.585  45.834  11.714  0.00  0.00    +0.000 HD
ENDBRANCH  20  22
ENDBRANCH   1  20
BRANCH   5  24
ATOM     24  C7  ZMR A 466      12.971  49.436  12.044  0.00  0.00    +0.000 C 
BRANCH  24  25
ATOM     25  O7  ZMR A 466      12.153  50.081  11.678  0.00  0.00    +0.000 OA
ATOM     26  H07 ZMR A 466      12.482  50.973  11.549  0.00  0.00    +0.000 HD
ENDBRANCH  24  25
BRANCH  24  27
ATOM     27  C8  ZMR A 466      13.600  48.368  11.311  0.00  0.00    +0.000 C 
BRANCH  27  28
ATOM     28  O8  ZMR A 466      14.976  48.757  11.350  0.00  0.00    +0.000 OA
ATOM     29  H08 ZMR A 466      15.397  48.528  10.518  0.00  0.00    +0.000 HD
ENDBRANCH  27  28
BRANCH  27  30
ATOM     30  C9  ZMR A 466      13.150  48.218   9.860  0.00  0.00    +0.000 C 
BRANCH  30  31
ATOM     31  O9  ZMR A 466      11.764  47.879   9.806  0.00  0.00    +0.000 OA
ATOM     32  H09 ZMR A 466      11.245  48.596  10.177  0.00  0.00    +0.000 HD
ENDBRANCH  30  31
ENDBRANCH  27  30
ENDBRANCH  24  27
ENDBRANCH   5  24
TORSDOF 10
ENDMDL
MODEL 5
REMARK VINA RESULT:    -4.679      9.308     10.611
REMARK INTER + INTRA:          -8.403
REMARK INTER:                  -7.233
REMARK INTRA:                  -1.170
REMARK UNBOUND:                -1.536
REMARK  Name = /Users/sarah.hw01/Documents/Master/SS25/SBDD/Project/1A4G-ZMR.pdb
REMARK  10 active torsions:
REMARK  status: ('A' for Active; 'I' for Inactive)
REMARK    1  A    between atoms: NE_1  and  C4_10
REMARK    2  A    between atoms: C1_5  and  O1B_7
REMARK    3  A    between atoms: C1_5  and  C2_8
REMARK    4  A    between atoms: C5_11  and  N5_12
REMARK    5  A    between atoms: C6_13  and  C7_15
REMARK    6  A    between atoms: C7_15  and  O7_16
REMARK    7  A    between atoms: C7_15  and  C8_17
REMARK    8  A    between atoms: C8_17  and  O8_18
REMARK    9  A    between atoms: C8_17  and  C9_19
REMARK   10  A    between atoms: C9_19  and  O9_20
REMARK                            x       y       z     vdW  Elec       q    Type
REMARK                         _______ _______ _______ _____ _____    ______ ____
ROOT
ATOM      1  C2  ZMR A 466      12.230  48.837  11.466  0.00  0.00    +0.000 C 
ATOM      2  C3  ZMR A 466      12.167  50.131  11.822  0.00  0.00    +0.000 C 
ATOM      3  C4  ZMR A 466      11.710  50.534  13.191  0.00  0.00    +0.000 C 
ATOM      4  C5  ZMR A 466      11.711  49.396  14.147  0.00  0.00    +0.000 C 
ATOM      5  C6  ZMR A 466      11.115  48.148  13.428  0.00  0.00    +0.000 C 
ATOM      6  O6  ZMR A 466      11.874  47.846  12.262  0.00  0.00    +0.000 OA
ENDROOT
BRANCH   3   7
ATOM      7  NE  ZMR A 466      12.460  51.639  13.748  0.00  0.00    +0.000 N 
ATOM      8  CZ  ZMR A 466      11.919  52.841  13.933  0.00  0.00    +0.000 C 
ATOM      9  NH1 ZMR A 466      10.694  53.129  13.481  0.00  0.00    +0.000 NA
ATOM     10  NH2 ZMR A 466      12.600  53.736  14.643  0.00  0.00    +0.000 N 
ATOM     11  H01 ZMR A 466      10.170  52.438  12.965  0.00  0.00    +0.000 HD
ATOM     12  H02 ZMR A 466      13.514  53.504  15.004  0.00  0.00    +0.000 HD
ATOM     13  H03 ZMR A 466      12.204  54.648  14.820  0.00  0.00    +0.000 HD
ATOM     14  H05 ZMR A 466      13.426  51.494  14.005  0.00  0.00    +0.000 HD
ENDBRANCH   3   7
BRANCH   4  15
ATOM     15  N5  ZMR A 466      10.888  49.703  15.307  0.00  0.00    +0.000 N 
ATOM     16  C10 ZMR A 466      11.368  50.223  16.441  0.00  0.00    +0.000 C 
ATOM     17  O10 ZMR A 466      12.552  50.352  16.679  0.00  0.00    +0.000 OA
ATOM     18  C11 ZMR A 466      10.312  50.673  17.431  0.00  0.00    +0.000 C 
ATOM     19  H06 ZMR A 466       9.898  49.513  15.253  0.00  0.00    +0.000 HD
ENDBRANCH   4  15
BRANCH   1  20
ATOM     20  C1  ZMR A 466      12.721  48.464  10.129  0.00  0.00    +0.000 C 
ATOM     21  O1A ZMR A 466      12.042  47.522   9.471  0.00  0.00    +0.000 OA
BRANCH  20  22
ATOM     22  O1B ZMR A 466      13.695  49.004   9.708  0.00  0.00    +0.000 OA
ATOM     23  H04 ZMR A 466      13.441  49.661   9.056  0.00  0.00    +0.000 HD
ENDBRANCH  20  22
ENDBRANCH   1  20
BRANCH   5  24
ATOM     24  C7  ZMR A 466      10.855  46.900  14.258  0.00  0.00    +0.000 C 
BRANCH  24  25
ATOM     25  O7  ZMR A 466      11.759  46.493  13.772  0.00  0.00    +0.000 OA
ATOM     26  H07 ZMR A 466      11.560  46.270  12.861  0.00  0.00    +0.000 HD
ENDBRANCH  24  25
BRANCH  24  27
ATOM     27  C8  ZMR A 466       9.526  46.353  14.170  0.00  0.00    +0.000 C 
BRANCH  27  28
ATOM     28  O8  ZMR A 466       9.391  46.138  12.762  0.00  0.00    +0.000 OA
ATOM     29  H08 ZMR A 466       8.511  46.400  12.481  0.00  0.00    +0.000 HD
ENDBRANCH  27  28
BRANCH  27  30
ATOM     30  C9  ZMR A 466       8.407  47.271  14.658  0.00  0.00    +0.000 C 
BRANCH  30  31
ATOM     31  O9  ZMR A 466       7.135  46.726  14.309  0.00  0.00    +0.000 OA
ATOM     32  H09 ZMR A 466       7.125  46.511  13.374  0.00  0.00    +0.000 HD
ENDBRANCH  30  31
ENDBRANCH  27  30
ENDBRANCH  24  27
ENDBRANCH   5  24
TORSDOF 10
ENDMDL
MODEL 6
REMARK VINA RESULT:    -4.573      7.426      9.498
REMARK INTER + INTRA:          -8.247
REMARK INTER:                  -6.579
REMARK INTRA:                  -1.668
REMARK UNBOUND:                -1.536
REMARK  Name = /Users/sarah.hw01/Documents/Master/SS25/SBDD/Project/1A4G-ZMR.pdb
REMARK  10 active torsions:
REMARK  status: ('A' for Active; 'I' for Inactive)
REMARK    1  A    between atoms: NE_1  and  C4_10
REMARK    2  A    between atoms: C1_5  and  O1B_7
REMARK    3  A    between atoms: C1_5  and  C2_8
REMARK    4  A    between atoms: C5_11  and  N5_12
REMARK    5  A    between atoms: C6_13  and  C7_15
REMARK    6  A    between atoms: C7_15  and  O7_16
REMARK    7  A    between atoms: C7_15  and  C8_17
REMARK    8  A    between atoms: C8_17  and  O8_18
REMARK    9  A    between atoms: C8_17  and  C9_19
REMARK   10  A    between atoms: C9_19  and  O9_20
REMARK                            x       y       z     vdW  Elec       q    Type
REMARK                         _______ _______ _______ _____ _____    ______ ____
ROOT
ATOM      1  C2  ZMR A 466      10.459  59.847  12.182  0.00  0.00    +0.000 C 
ATOM      2  C3  ZMR A 466      11.801  59.817  12.222  0.00  0.00    +0.000 C 
ATOM      3  C4  ZMR A 466      12.536  59.873  13.527  0.00  0.00    +0.000 C 
ATOM      4  C5  ZMR A 466      11.652  59.595  14.688  0.00  0.00    +0.000 C 
ATOM      5  C6  ZMR A 466      10.310  60.360  14.480  0.00  0.00    +0.000 C 
ATOM      6  O6  ZMR A 466       9.702  59.957  13.257  0.00  0.00    +0.000 OA
ENDROOT
BRANCH   3   7
ATOM      7  NE  ZMR A 466      13.693  59.005  13.575  0.00  0.00    +0.000 N 
ATOM      8  CZ  ZMR A 466      14.867  59.415  14.049  0.00  0.00    +0.000 C 
ATOM      9  NH1 ZMR A 466      15.078  60.695  14.374  0.00  0.00    +0.000 NA
ATOM     10  NH2 ZMR A 466      15.814  58.505  14.260  0.00  0.00    +0.000 N 
ATOM     11  H01 ZMR A 466      14.347  61.378  14.236  0.00  0.00    +0.000 HD
ATOM     12  H02 ZMR A 466      15.641  57.535  14.037  0.00  0.00    +0.000 HD
ATOM     13  H03 ZMR A 466      16.706  58.784  14.642  0.00  0.00    +0.000 HD
ATOM     14  H05 ZMR A 466      13.607  58.057  13.239  0.00  0.00    +0.000 HD
ENDBRANCH   3   7
BRANCH   4  15
ATOM     15  N5  ZMR A 466      12.268  60.060  15.922  0.00  0.00    +0.000 N 
ATOM     16  C10 ZMR A 466      12.385  59.310  17.022  0.00  0.00    +0.000 C 
ATOM     17  O10 ZMR A 466      11.861  58.223  17.160  0.00  0.00    +0.000 OA
ATOM     18  C11 ZMR A 466      13.256  59.908  18.108  0.00  0.00    +0.000 C 
ATOM     19  H06 ZMR A 466      12.627  61.003  15.948  0.00  0.00    +0.000 HD
ENDBRANCH   4  15
BRANCH   1  20
ATOM     20  C1  ZMR A 466       9.758  59.749  10.890  0.00  0.00    +0.000 C 
ATOM     21  O1A ZMR A 466       8.801  60.648  10.646  0.00  0.00    +0.000 OA
BRANCH  20  22
ATOM     22  O1B ZMR A 466      10.064  58.878  10.139  0.00  0.00    +0.000 OA
ATOM     23  H04 ZMR A 466      10.023  58.034  10.595  0.00  0.00    +0.000 HD
ENDBRANCH  20  22
ENDBRANCH   1  20
BRANCH   5  24
ATOM     24  C7  ZMR A 466       9.305  60.366  15.622  0.00  0.00    +0.000 C 
BRANCH  24  25
ATOM     25  O7  ZMR A 466       9.281  59.270  15.493  0.00  0.00    +0.000 OA
ATOM     26  H07 ZMR A 466      10.041  58.880  15.930  0.00  0.00    +0.000 HD
ENDBRANCH  24  25
BRANCH  24  27
ATOM     27  C8  ZMR A 466       8.189  61.262  15.471  0.00  0.00    +0.000 C 
BRANCH  27  28
ATOM     28  O8  ZMR A 466       7.162  60.377  15.016  0.00  0.00    +0.000 OA
ATOM     29  H08 ZMR A 466       6.621  60.823  14.360  0.00  0.00    +0.000 HD
ENDBRANCH  27  28
BRANCH  27  30
ATOM     30  C9  ZMR A 466       8.385  62.385  14.455  0.00  0.00    +0.000 C 
BRANCH  30  31
ATOM     31  O9  ZMR A 466       7.693  62.081  13.245  0.00  0.00    +0.000 OA
ATOM     32  H09 ZMR A 466       8.313  61.733  12.600  0.00  0.00    +0.000 HD
ENDBRANCH  30  31
ENDBRANCH  27  30
ENDBRANCH  24  27
ENDBRANCH   5  24
TORSDOF 10
ENDMDL
MODEL 7
REMARK VINA RESULT:    -4.548     11.001     12.795
REMARK INTER + INTRA:          -8.210
REMARK INTER:                  -6.682
REMARK INTRA:                  -1.528
REMARK UNBOUND:                -1.536
REMARK  Name = /Users/sarah.hw01/Documents/Master/SS25/SBDD/Project/1A4G-ZMR.pdb
REMARK  10 active torsions:
REMARK  status: ('A' for Active; 'I' for Inactive)
REMARK    1  A    between atoms: NE_1  and  C4_10
REMARK    2  A    between atoms: C1_5  and  O1B_7
REMARK    3  A    between atoms: C1_5  and  C2_8
REMARK    4  A    between atoms: C5_11  and  N5_12
REMARK    5  A    between atoms: C6_13  and  C7_15
REMARK    6  A    between atoms: C7_15  and  O7_16
REMARK    7  A    between atoms: C7_15  and  C8_17
REMARK    8  A    between atoms: C8_17  and  O8_18
REMARK    9  A    between atoms: C8_17  and  C9_19
REMARK   10  A    between atoms: C9_19  and  O9_20
REMARK                            x       y       z     vdW  Elec       q    Type
REMARK                         _______ _______ _______ _____ _____    ______ ____
ROOT
ATOM      1  C2  ZMR A 466      11.451  50.382  13.915  0.00  0.00    +0.000 C 
ATOM      2  C3  ZMR A 466      11.844  49.250  13.309  0.00  0.00    +0.000 C 
ATOM      3  C4  ZMR A 466      11.128  47.956  13.548  0.00  0.00    +0.000 C 
ATOM      4  C5  ZMR A 466       9.800  48.154  14.185  0.00  0.00    +0.000 C 
ATOM      5  C6  ZMR A 466       9.946  49.220  15.313  0.00  0.00    +0.000 C 
ATOM      6  O6  ZMR A 466      10.448  50.438  14.771  0.00  0.00    +0.000 OA
ENDROOT
BRANCH   3   7
ATOM      7  NE  ZMR A 466      10.982  47.147  12.358  0.00  0.00    +0.000 N 
ATOM      8  CZ  ZMR A 466      11.734  46.073  12.135  0.00  0.00    +0.000 C 
ATOM      9  NH1 ZMR A 466      12.762  45.765  12.933  0.00  0.00    +0.000 NA
ATOM     10  NH2 ZMR A 466      11.398  45.265  11.133  0.00  0.00    +0.000 N 
ATOM     11  H01 ZMR A 466      12.998  46.368  13.708  0.00  0.00    +0.000 HD
ATOM     12  H02 ZMR A 466      10.605  45.488  10.549  0.00  0.00    +0.000 HD
ATOM     13  H03 ZMR A 466      11.937  44.429  10.956  0.00  0.00    +0.000 HD
ATOM     14  H05 ZMR A 466      10.287  47.407  11.673  0.00  0.00    +0.000 HD
ENDBRANCH   3   7
BRANCH   4  15
ATOM     15  N5  ZMR A 466       9.327  46.911  14.777  0.00  0.00    +0.000 N 
ATOM     16  C10 ZMR A 466       8.070  46.471  14.677  0.00  0.00    +0.000 C 
ATOM     17  O10 ZMR A 466       7.157  47.127  14.216  0.00  0.00    +0.000 OA
ATOM     18  C11 ZMR A 466       7.851  45.054  15.168  0.00  0.00    +0.000 C 
ATOM     19  H06 ZMR A 466       9.989  46.348  15.293  0.00  0.00    +0.000 HD
ENDBRANCH   4  15
BRANCH   1  20
ATOM     20  C1  ZMR A 466      12.146  51.650  13.631  0.00  0.00    +0.000 C 
ATOM     21  O1A ZMR A 466      13.285  51.880  14.288  0.00  0.00    +0.000 OA
BRANCH  20  22
ATOM     22  O1B ZMR A 466      11.659  52.405  12.850  0.00  0.00    +0.000 OA
ATOM     23  H04 ZMR A 466      12.323  53.030  12.553  0.00  0.00    +0.000 HD
ENDBRANCH  20  22
ENDBRANCH   1  20
BRANCH   5  24
ATOM     24  C7  ZMR A 466       8.754  49.468  16.223  0.00  0.00    +0.000 C 
BRANCH  24  25
ATOM     25  O7  ZMR A 466       8.263  49.880  15.324  0.00  0.00    +0.000 OA
ATOM     26  H07 ZMR A 466       8.749  50.648  15.017  0.00  0.00    +0.000 HD
ENDBRANCH  24  25
BRANCH  24  27
ATOM     27  C8  ZMR A 466       9.032  50.185  17.440  0.00  0.00    +0.000 C 
BRANCH  27  28
ATOM     28  O8  ZMR A 466       8.161  49.533  18.370  0.00  0.00    +0.000 OA
ATOM     29  H08 ZMR A 466       8.312  49.885  19.250  0.00  0.00    +0.000 HD
ENDBRANCH  27  28
BRANCH  27  30
ATOM     30  C9  ZMR A 466       8.719  51.679  17.405  0.00  0.00    +0.000 C 
BRANCH  30  31
ATOM     31  O9  ZMR A 466       9.678  52.365  16.601  0.00  0.00    +0.000 OA
ATOM     32  H09 ZMR A 466      10.537  51.947  16.702  0.00  0.00    +0.000 HD
ENDBRANCH  30  31
ENDBRANCH  27  30
ENDBRANCH  24  27
ENDBRANCH   5  24
TORSDOF 10
ENDMDL
MODEL 8
REMARK VINA RESULT:    -4.508     10.136     11.657
REMARK INTER + INTRA:          -8.152
REMARK INTER:                  -6.384
REMARK INTRA:                  -1.768
REMARK UNBOUND:                -1.536
REMARK  Name = /Users/sarah.hw01/Documents/Master/SS25/SBDD/Project/1A4G-ZMR.pdb
REMARK  10 active torsions:
REMARK  status: ('A' for Active; 'I' for Inactive)
REMARK    1  A    between atoms: NE_1  and  C4_10
REMARK    2  A    between atoms: C1_5  and  O1B_7
REMARK    3  A    between atoms: C1_5  and  C2_8
REMARK    4  A    between atoms: C5_11  and  N5_12
REMARK    5  A    between atoms: C6_13  and  C7_15
REMARK    6  A    between atoms: C7_15  and  O7_16
REMARK    7  A    between atoms: C7_15  and  C8_17
REMARK    8  A    between atoms: C8_17  and  O8_18
REMARK    9  A    between atoms: C8_17  and  C9_19
REMARK   10  A    between atoms: C9_19  and  O9_20
REMARK                            x       y       z     vdW  Elec       q    Type
REMARK                         _______ _______ _______ _____ _____    ______ ____
ROOT
ATOM      1  C2  ZMR A 466      11.496  48.623  12.334  0.00  0.00    +0.000 C 
ATOM      2  C3  ZMR A 466      10.721  47.606  12.744  0.00  0.00    +0.000 C 
ATOM      3  C4  ZMR A 466      10.085  47.616  14.101  0.00  0.00    +0.000 C 
ATOM      4  C5  ZMR A 466      10.107  48.964  14.726  0.00  0.00    +0.000 C 
ATOM      5  C6  ZMR A 466      11.509  49.598  14.483  0.00  0.00    +0.000 C 
ATOM      6  O6  ZMR A 466      11.779  49.670  13.086  0.00  0.00    +0.000 OA
ENDROOT
BRANCH   3   7
ATOM      7  NE  ZMR A 466       8.735  47.096  14.110  0.00  0.00    +0.000 N 
ATOM      8  CZ  ZMR A 466       8.317  46.228  15.028  0.00  0.00    +0.000 C 
ATOM      9  NH1 ZMR A 466       9.164  45.682  15.907  0.00  0.00    +0.000 NA
ATOM     10  NH2 ZMR A 466       7.015  45.964  15.098  0.00  0.00    +0.000 N 
ATOM     11  H01 ZMR A 466      10.148  45.906  15.866  0.00  0.00    +0.000 HD
ATOM     12  H02 ZMR A 466       6.376  46.399  14.449  0.00  0.00    +0.000 HD
ATOM     13  H03 ZMR A 466       6.666  45.329  15.801  0.00  0.00    +0.000 HD
ATOM     14  H05 ZMR A 466       8.089  47.400  13.396  0.00  0.00    +0.000 HD
ENDBRANCH   3   7
BRANCH   4  15
ATOM     15  N5  ZMR A 466       9.881  48.865  16.160  0.00  0.00    +0.000 N 
ATOM     16  C10 ZMR A 466       8.974  49.590  16.821  0.00  0.00    +0.000 C 
ATOM     17  O10 ZMR A 466       8.352  50.510  16.328  0.00  0.00    +0.000 OA
ATOM     18  C11 ZMR A 466       8.749  49.168  18.259  0.00  0.00    +0.000 C 
ATOM     19  H06 ZMR A 466      10.443  48.211  16.686  0.00  0.00    +0.000 HD
ENDBRANCH   4  15
BRANCH   1  20
ATOM     20  C1  ZMR A 466      12.077  48.609  10.980  0.00  0.00    +0.000 C 
ATOM     21  O1A ZMR A 466      13.256  49.213  10.817  0.00  0.00    +0.000 OA
BRANCH  20  22
ATOM     22  O1B ZMR A 466      11.470  48.078  10.105  0.00  0.00    +0.000 OA
ATOM     23  H04 ZMR A 466      12.039  47.969   9.341  0.00  0.00    +0.000 HD
ENDBRANCH  20  22
ENDBRANCH   1  20
BRANCH   5  24
ATOM     24  C7  ZMR A 466      11.831  50.913  15.178  0.00  0.00    +0.000 C 
BRANCH  24  25
ATOM     25  O7  ZMR A 466      10.940  51.306  14.657  0.00  0.00    +0.000 OA
ATOM     26  H07 ZMR A 466      10.643  50.669  14.005  0.00  0.00    +0.000 HD
ENDBRANCH  24  25
BRANCH  24  27
ATOM     27  C8  ZMR A 466      13.180  51.389  15.025  0.00  0.00    +0.000 C 
BRANCH  27  28
ATOM     28  O8  ZMR A 466      13.083  52.170  13.831  0.00  0.00    +0.000 OA
ATOM     29  H08 ZMR A 466      13.162  51.597  13.065  0.00  0.00    +0.000 HD
ENDBRANCH  27  28
BRANCH  27  30
ATOM     30  C9  ZMR A 466      14.240  50.304  14.844  0.00  0.00    +0.000 C 
BRANCH  30  31
ATOM     31  O9  ZMR A 466      14.695  50.281  13.491  0.00  0.00    +0.000 OA
ATOM     32  H09 ZMR A 466      14.807  49.371  13.206  0.00  0.00    +0.000 HD
ENDBRANCH  30  31
ENDBRANCH  27  30
ENDBRANCH  24  27
ENDBRANCH   5  24
TORSDOF 10
ENDMDL
MODEL 9
REMARK VINA RESULT:    -4.432      2.920      5.671
REMARK INTER + INTRA:          -8.040
REMARK INTER:                  -6.735
REMARK INTRA:                  -1.306
REMARK UNBOUND:                -1.536
REMARK  Name = /Users/sarah.hw01/Documents/Master/SS25/SBDD/Project/1A4G-ZMR.pdb
REMARK  10 active torsions:
REMARK  status: ('A' for Active; 'I' for Inactive)
REMARK    1  A    between atoms: NE_1  and  C4_10
REMARK    2  A    between atoms: C1_5  and  O1B_7
REMARK    3  A    between atoms: C1_5  and  C2_8
REMARK    4  A    between atoms: C5_11  and  N5_12
REMARK    5  A    between atoms: C6_13  and  C7_15
REMARK    6  A    between atoms: C7_15  and  O7_16
REMARK    7  A    between atoms: C7_15  and  C8_17
REMARK    8  A    between atoms: C8_17  and  O8_18
REMARK    9  A    between atoms: C8_17  and  C9_19
REMARK   10  A    between atoms: C9_19  and  O9_20
REMARK                            x       y       z     vdW  Elec       q    Type
REMARK                         _______ _______ _______ _____ _____    ______ ____
ROOT
ATOM      1  C2  ZMR A 466      18.889  57.577  13.260  0.00  0.00    +0.000 C 
ATOM      2  C3  ZMR A 466      19.106  56.641  14.199  0.00  0.00    +0.000 C 
ATOM      3  C4  ZMR A 466      19.227  55.193  13.833  0.00  0.00    +0.000 C 
ATOM      4  C5  ZMR A 466      19.447  54.993  12.377  0.00  0.00    +0.000 C 
ATOM      5  C6  ZMR A 466      18.493  55.948  11.598  0.00  0.00    +0.000 C 
ATOM      6  O6  ZMR A 466      18.737  57.299  11.979  0.00  0.00    +0.000 OA
ENDROOT
BRANCH   3   7
ATOM      7  NE  ZMR A 466      20.248  54.492  14.582  0.00  0.00    +0.000 N 
ATOM      8  CZ  ZMR A 466      20.035  53.293  15.118  0.00  0.00    +0.000 C 
ATOM      9  NH1 ZMR A 466      18.820  52.735  15.115  0.00  0.00    +0.000 NA
ATOM     10  NH2 ZMR A 466      21.079  52.625  15.602  0.00  0.00    +0.000 N 
ATOM     11  H01 ZMR A 466      18.035  53.236  14.724  0.00  0.00    +0.000 HD
ATOM     12  H02 ZMR A 466      21.999  53.040  15.578  0.00  0.00    +0.000 HD
ATOM     13  H03 ZMR A 466      20.951  51.702  15.992  0.00  0.00    +0.000 HD
ATOM     14  H05 ZMR A 466      21.151  54.927  14.701  0.00  0.00    +0.000 HD
ENDBRANCH   3   7
BRANCH   4  15
ATOM     15  N5  ZMR A 466      19.143  53.621  11.999  0.00  0.00    +0.000 N 
ATOM     16  C10 ZMR A 466      20.010  52.811  11.384  0.00  0.00    +0.000 C 
ATOM     17  O10 ZMR A 466      21.081  53.175  10.942  0.00  0.00    +0.000 OA
ATOM     18  C11 ZMR A 466      19.570  51.364  11.289  0.00  0.00    +0.000 C 
ATOM     19  H06 ZMR A 466      18.224  53.260  12.214  0.00  0.00    +0.000 HD
ENDBRANCH   4  15
BRANCH   1  20
ATOM     20  C1  ZMR A 466      18.814  58.998  13.639  0.00  0.00    +0.000 C 
ATOM     21  O1A ZMR A 466      18.676  59.276  14.938  0.00  0.00    +0.000 OA
BRANCH  20  22
ATOM     22  O1B ZMR A 466      18.868  59.821  12.781  0.00  0.00    +0.000 OA
ATOM     23  H04 ZMR A 466      17.979  60.101  12.550  0.00  0.00    +0.000 HD
ENDBRANCH  20  22
ENDBRANCH   1  20
BRANCH   5  24
ATOM     24  C7  ZMR A 466      18.414  55.804  10.086  0.00  0.00    +0.000 C 
BRANCH  24  25
ATOM     25  O7  ZMR A 466      19.500  56.004  10.097  0.00  0.00    +0.000 OA
ATOM     26  H07 ZMR A 466      19.659  56.892  10.423  0.00  0.00    +0.000 HD
ENDBRANCH  24  25
BRANCH  24  27
ATOM     27  C8  ZMR A 466      17.412  56.603   9.432  0.00  0.00    +0.000 C 
BRANCH  27  28
ATOM     28  O8  ZMR A 466      16.217  55.873   9.723  0.00  0.00    +0.000 OA
ATOM     29  H08 ZMR A 466      15.657  56.393  10.303  0.00  0.00    +0.000 HD
ENDBRANCH  27  28
BRANCH  27  30
ATOM     30  C9  ZMR A 466      17.572  56.742   7.919  0.00  0.00    +0.000 C 
BRANCH  30  31
ATOM     31  O9  ZMR A 466      17.154  58.040   7.496  0.00  0.00    +0.000 OA
ATOM     32  H09 ZMR A 466      17.362  58.156   6.566  0.00  0.00    +0.000 HD
ENDBRANCH  30  31
ENDBRANCH  27  30
ENDBRANCH  24  27
ENDBRANCH   5  24
TORSDOF 10
ENDMDL
