MODEL 1
REMARK VINA RESULT:    -7.990      0.000      0.000
REMARK INTER + INTRA:         -13.267
REMARK INTER:                 -11.727
REMARK INTRA:                  -1.540
REMARK UNBOUND:                -1.540
REMARK  Name = 1A4G-ZMR.pdb
REMARK  10 active torsions:
REMARK  status: ('A' for Active; 'I' for Inactive)
REMARK    1  A    between atoms: NE_1  and  C4_10
REMARK    2  A    between atoms: C1_5  and  O1B_7
REMARK    3  A    between atoms: C1_5  and  C2_8
REMARK    4  A    between atoms: C5_11  and  N5_12
REMARK    5  A    between atoms: C6_13  and  C7_15
REMARK    6  A    between atoms: C7_15  and  O7_16
REMARK    7  A    between atoms: C7_15  and  C8_17
REMARK    8  A    between atoms: C8_17  and  O8_18
REMARK    9  A    between atoms: C8_17  and  C9_19
REMARK   10  A    between atoms: C9_19  and  O9_20
REMARK                            x       y       z     vdW  Elec       q    Type
REMARK                         _______ _______ _______ _____ _____    ______ ____
ROOT
ATOM      1  C2  ZMR A 466      -2.109  57.460  -7.023  0.00  0.00    +0.000 C 
ATOM      2  C3  ZMR A 466      -1.231  56.454  -7.164  0.00  0.00    +0.000 C 
ATOM      3  C4  ZMR A 466      -1.328  55.499  -8.315  0.00  0.00    +0.000 C 
ATOM      4  C5  ZMR A 466      -2.211  56.006  -9.398  0.00  0.00    +0.000 C 
ATOM      5  C6  ZMR A 466      -3.485  56.624  -8.748  0.00  0.00    +0.000 C 
ATOM      6  O6  ZMR A 466      -3.119  57.665  -7.847  0.00  0.00    +0.000 OA
ENDROOT
BRANCH   3   7
ATOM      7  NE  ZMR A 466      -0.043  55.127  -8.867  0.00  0.00    +0.000 N 
ATOM      8  CZ  ZMR A 466       0.222  53.888  -9.271  0.00  0.00    +0.000 C 
ATOM      9  NH1 ZMR A 466      -0.639  52.887  -9.057  0.00  0.00    +0.000 NA
ATOM     10  NH2 ZMR A 466       1.340  53.675  -9.959  0.00  0.00    +0.000 N 
ATOM     11  H01 ZMR A 466      -1.498  53.058  -8.556  0.00  0.00    +0.000 HD
ATOM     12  H02 ZMR A 466       1.974  54.440 -10.141  0.00  0.00    +0.000 HD
ATOM     13  H03 ZMR A 466       1.555  52.749 -10.300  0.00  0.00    +0.000 HD
ATOM     14  H05 ZMR A 466       0.677  55.831  -8.947  0.00  0.00    +0.000 HD
ENDBRANCH   3   7
BRANCH   4  15
ATOM     15  N5  ZMR A 466      -2.615  54.919 -10.277  0.00  0.00    +0.000 N 
ATOM     16  C10 ZMR A 466      -2.422  54.922 -11.599  0.00  0.00    +0.000 C 
ATOM     17  O10 ZMR A 466      -2.031  55.887 -12.224  0.00  0.00    +0.000 OA
ATOM     18  C11 ZMR A 466      -2.711  53.603 -12.286  0.00  0.00    +0.000 C 
ATOM     19  H06 ZMR A 466      -3.068  54.116  -9.864  0.00  0.00    +0.000 HD
ENDBRANCH   4  15
BRANCH   1  20
ATOM     20  C1  ZMR A 466      -1.968  58.410  -5.905  0.00  0.00    +0.000 C 
ATOM     21  O1A ZMR A 466      -0.859  59.154  -5.874  0.00  0.00    +0.000 OA
BRANCH  20  22
ATOM     22  O1B ZMR A 466      -2.831  58.460  -5.088  0.00  0.00    +0.000 OA
ATOM     23  H04 ZMR A 466      -2.972  59.373  -4.827  0.00  0.00    +0.000 HD
ENDBRANCH  20  22
ENDBRANCH   1  20
BRANCH   5  24
ATOM     24  C7  ZMR A 466      -4.618  57.057  -9.664  0.00  0.00    +0.000 C 
BRANCH  24  25
ATOM     25  O7  ZMR A 466      -3.828  57.527 -10.277  0.00  0.00    +0.000 OA
ATOM     26  H07 ZMR A 466      -3.713  57.027 -11.088  0.00  0.00    +0.000 HD
ENDBRANCH  24  25
BRANCH  24  27
ATOM     27  C8  ZMR A 466      -5.714  57.739  -9.028  0.00  0.00    +0.000 C 
BRANCH  27  28
ATOM     28  O8  ZMR A 466      -6.130  56.780  -8.052  0.00  0.00    +0.000 OA
ATOM     29  H08 ZMR A 466      -5.695  56.965  -7.216  0.00  0.00    +0.000 HD
ENDBRANCH  27  28
BRANCH  27  30
ATOM     30  C9  ZMR A 466      -6.889  58.083  -9.942  0.00  0.00    +0.000 C 
BRANCH  30  31
ATOM     31  O9  ZMR A 466      -6.950  57.165 -11.033  0.00  0.00    +0.000 OA
ATOM     32  H09 ZMR A 466      -6.059  56.936 -11.308  0.00  0.00    +0.000 HD
ENDBRANCH  30  31
ENDBRANCH  27  30
ENDBRANCH  24  27
ENDBRANCH   5  24
TORSDOF 10
ENDMDL
MODEL 2
REMARK VINA RESULT:    -7.644      2.158      4.653
REMARK INTER + INTRA:         -12.759
REMARK INTER:                 -11.246
REMARK INTRA:                  -1.512
REMARK UNBOUND:                -1.540
REMARK  Name = 1A4G-ZMR.pdb
REMARK  10 active torsions:
REMARK  status: ('A' for Active; 'I' for Inactive)
REMARK    1  A    between atoms: NE_1  and  C4_10
REMARK    2  A    between atoms: C1_5  and  O1B_7
REMARK    3  A    between atoms: C1_5  and  C2_8
REMARK    4  A    between atoms: C5_11  and  N5_12
REMARK    5  A    between atoms: C6_13  and  C7_15
REMARK    6  A    between atoms: C7_15  and  O7_16
REMARK    7  A    between atoms: C7_15  and  C8_17
REMARK    8  A    between atoms: C8_17  and  O8_18
REMARK    9  A    between atoms: C8_17  and  C9_19
REMARK   10  A    between atoms: C9_19  and  O9_20
REMARK                            x       y       z     vdW  Elec       q    Type
REMARK                         _______ _______ _______ _____ _____    ______ ____
ROOT
ATOM      1  C2  ZMR A 466      -5.322  57.855  -9.007  0.00  0.00    +0.000 C 
ATOM      2  C3  ZMR A 466      -5.409  56.680  -9.652  0.00  0.00    +0.000 C 
ATOM      3  C4  ZMR A 466      -4.290  55.684  -9.597  0.00  0.00    +0.000 C 
ATOM      4  C5  ZMR A 466      -3.322  55.980  -8.509  0.00  0.00    +0.000 C 
ATOM      5  C6  ZMR A 466      -3.044  57.513  -8.499  0.00  0.00    +0.000 C 
ATOM      6  O6  ZMR A 466      -4.261  58.230  -8.319  0.00  0.00    +0.000 OA
ENDROOT
BRANCH   3   7
ATOM      7  NE  ZMR A 466      -4.742  54.314  -9.489  0.00  0.00    +0.000 N 
ATOM      8  CZ  ZMR A 466      -4.222  53.337 -10.227  0.00  0.00    +0.000 C 
ATOM      9  NH1 ZMR A 466      -3.353  53.595 -11.211  0.00  0.00    +0.000 NA
ATOM     10  NH2 ZMR A 466      -4.535  52.081  -9.921  0.00  0.00    +0.000 N 
ATOM     11  H01 ZMR A 466      -3.099  54.549 -11.423  0.00  0.00    +0.000 HD
ATOM     12  H02 ZMR A 466      -5.171  51.890  -9.161  0.00  0.00    +0.000 HD
ATOM     13  H03 ZMR A 466      -4.135  51.318 -10.449  0.00  0.00    +0.000 HD
ATOM     14  H05 ZMR A 466      -5.476  54.091  -8.832  0.00  0.00    +0.000 HD
ENDBRANCH   3   7
BRANCH   4  15
ATOM     15  N5  ZMR A 466      -2.067  55.279  -8.738  0.00  0.00    +0.000 N 
ATOM     16  C10 ZMR A 466      -1.739  54.130  -8.141  0.00  0.00    +0.000 C 
ATOM     17  O10 ZMR A 466      -2.378  53.629  -7.238  0.00  0.00    +0.000 OA
ATOM     18  C11 ZMR A 466      -0.495  53.461  -8.691  0.00  0.00    +0.000 C 
ATOM     19  H06 ZMR A 466      -1.407  55.685  -9.385  0.00  0.00    +0.000 HD
ENDBRANCH   4  15
BRANCH   1  20
ATOM     20  C1  ZMR A 466      -6.452  58.800  -9.043  0.00  0.00    +0.000 C 
ATOM     21  O1A ZMR A 466      -7.553  58.410  -9.691  0.00  0.00    +0.000 OA
BRANCH  20  22
ATOM     22  O1B ZMR A 466      -6.328  59.858  -8.511  0.00  0.00    +0.000 OA
ATOM     23  H04 ZMR A 466      -5.547  59.846  -7.954  0.00  0.00    +0.000 HD
ENDBRANCH  20  22
ENDBRANCH   1  20
BRANCH   5  24
ATOM     24  C7  ZMR A 466      -1.951  58.037  -7.579  0.00  0.00    +0.000 C 
BRANCH  24  25
ATOM     25  O7  ZMR A 466      -2.315  57.283  -6.859  0.00  0.00    +0.000 OA
ATOM     26  H07 ZMR A 466      -2.682  57.726  -6.091  0.00  0.00    +0.000 HD
ENDBRANCH  24  25
BRANCH  24  27
ATOM     27  C8  ZMR A 466      -1.931  59.462  -7.377  0.00  0.00    +0.000 C 
BRANCH  27  28
ATOM     28  O8  ZMR A 466      -0.554  59.771  -7.608  0.00  0.00    +0.000 OA
ATOM     29  H08 ZMR A 466      -0.041  58.960  -7.624  0.00  0.00    +0.000 HD
ENDBRANCH  27  28
BRANCH  27  30
ATOM     30  C9  ZMR A 466      -2.334  59.929  -5.980  0.00  0.00    +0.000 C 
BRANCH  30  31
ATOM     31  O9  ZMR A 466      -3.745  59.803  -5.806  0.00  0.00    +0.000 OA
ATOM     32  H09 ZMR A 466      -3.974  59.999  -4.894  0.00  0.00    +0.000 HD
ENDBRANCH  30  31
ENDBRANCH  27  30
ENDBRANCH  24  27
ENDBRANCH   5  24
TORSDOF 10
ENDMDL
MODEL 3
REMARK VINA RESULT:    -7.287      3.316      5.278
REMARK INTER + INTRA:         -12.235
REMARK INTER:                 -10.967
REMARK INTRA:                  -1.268
REMARK UNBOUND:                -1.540
REMARK  Name = 1A4G-ZMR.pdb
REMARK  10 active torsions:
REMARK  status: ('A' for Active; 'I' for Inactive)
REMARK    1  A    between atoms: NE_1  and  C4_10
REMARK    2  A    between atoms: C1_5  and  O1B_7
REMARK    3  A    between atoms: C1_5  and  C2_8
REMARK    4  A    between atoms: C5_11  and  N5_12
REMARK    5  A    between atoms: C6_13  and  C7_15
REMARK    6  A    between atoms: C7_15  and  O7_16
REMARK    7  A    between atoms: C7_15  and  C8_17
REMARK    8  A    between atoms: C8_17  and  O8_18
REMARK    9  A    between atoms: C8_17  and  C9_19
REMARK   10  A    between atoms: C9_19  and  O9_20
REMARK                            x       y       z     vdW  Elec       q    Type
REMARK                         _______ _______ _______ _____ _____    ______ ____
ROOT
ATOM      1  C2  ZMR A 466      -3.989  54.690  -9.741  0.00  0.00    +0.000 C 
ATOM      2  C3  ZMR A 466      -3.239  55.337  -8.834  0.00  0.00    +0.000 C 
ATOM      3  C4  ZMR A 466      -3.347  56.821  -8.659  0.00  0.00    +0.000 C 
ATOM      4  C5  ZMR A 466      -4.570  57.378  -9.295  0.00  0.00    +0.000 C 
ATOM      5  C6  ZMR A 466      -4.748  56.711 -10.692  0.00  0.00    +0.000 C 
ATOM      6  O6  ZMR A 466      -4.835  55.296 -10.551  0.00  0.00    +0.000 OA
ENDROOT
BRANCH   3   7
ATOM      7  NE  ZMR A 466      -3.278  57.247  -7.278  0.00  0.00    +0.000 N 
ATOM      8  CZ  ZMR A 466      -2.513  58.263  -6.888  0.00  0.00    +0.000 C 
ATOM      9  NH1 ZMR A 466      -1.658  58.854  -7.729  0.00  0.00    +0.000 NA
ATOM     10  NH2 ZMR A 466      -2.666  58.728  -5.651  0.00  0.00    +0.000 N 
ATOM     11  H01 ZMR A 466      -1.564  58.514  -8.675  0.00  0.00    +0.000 HD
ATOM     12  H02 ZMR A 466      -3.331  58.295  -5.027  0.00  0.00    +0.000 HD
ATOM     13  H03 ZMR A 466      -2.116  59.514  -5.336  0.00  0.00    +0.000 HD
ATOM     14  H05 ZMR A 466      -3.828  56.757  -6.587  0.00  0.00    +0.000 HD
ENDBRANCH   3   7
BRANCH   4  15
ATOM     15  N5  ZMR A 466      -4.440  58.816  -9.477  0.00  0.00    +0.000 N 
ATOM     16  C10 ZMR A 466      -5.376  59.698  -9.115  0.00  0.00    +0.000 C 
ATOM     17  O10 ZMR A 466      -6.489  59.389  -8.738  0.00  0.00    +0.000 OA
ATOM     18  C11 ZMR A 466      -4.944  61.149  -9.185  0.00  0.00    +0.000 C 
ATOM     19  H06 ZMR A 466      -3.594  59.168  -9.901  0.00  0.00    +0.000 HD
ENDBRANCH   4  15
BRANCH   1  20
ATOM     20  C1  ZMR A 466      -3.894  53.225  -9.865  0.00  0.00    +0.000 C 
ATOM     21  O1A ZMR A 466      -3.075  52.745 -10.804  0.00  0.00    +0.000 OA
BRANCH  20  22
ATOM     22  O1B ZMR A 466      -4.552  52.547  -9.141  0.00  0.00    +0.000 OA
ATOM     23  H04 ZMR A 466      -5.342  52.257  -9.603  0.00  0.00    +0.000 HD
ENDBRANCH  20  22
ENDBRANCH   1  20
BRANCH   5  24
ATOM     24  C7  ZMR A 466      -5.839  57.246 -11.606  0.00  0.00    +0.000 C 
BRANCH  24  25
ATOM     25  O7  ZMR A 466      -6.534  56.665 -10.974  0.00  0.00    +0.000 OA
ATOM     26  H07 ZMR A 466      -6.838  57.212 -10.247  0.00  0.00    +0.000 HD
ENDBRANCH  24  25
BRANCH  24  27
ATOM     27  C8  ZMR A 466      -5.622  57.061 -13.017  0.00  0.00    +0.000 C 
BRANCH  27  28
ATOM     28  O8  ZMR A 466      -4.203  57.207 -13.117  0.00  0.00    +0.000 OA
ATOM     29  H08 ZMR A 466      -3.777  56.678 -12.439  0.00  0.00    +0.000 HD
ENDBRANCH  27  28
BRANCH  27  30
ATOM     30  C9  ZMR A 466      -6.308  58.081 -13.923  0.00  0.00    +0.000 C 
BRANCH  30  31
ATOM     31  O9  ZMR A 466      -7.590  57.600 -14.325  0.00  0.00    +0.000 OA
ATOM     32  H09 ZMR A 466      -8.275  58.115 -13.892  0.00  0.00    +0.000 HD
ENDBRANCH  30  31
ENDBRANCH  27  30
ENDBRANCH  24  27
ENDBRANCH   5  24
TORSDOF 10
ENDMDL
MODEL 4
REMARK VINA RESULT:    -7.018      2.444      4.932
REMARK INTER + INTRA:         -11.840
REMARK INTER:                 -11.519
REMARK INTRA:                  -0.321
REMARK UNBOUND:                -1.540
REMARK  Name = 1A4G-ZMR.pdb
REMARK  10 active torsions:
REMARK  status: ('A' for Active; 'I' for Inactive)
REMARK    1  A    between atoms: NE_1  and  C4_10
REMARK    2  A    between atoms: C1_5  and  O1B_7
REMARK    3  A    between atoms: C1_5  and  C2_8
REMARK    4  A    between atoms: C5_11  and  N5_12
REMARK    5  A    between atoms: C6_13  and  C7_15
REMARK    6  A    between atoms: C7_15  and  O7_16
REMARK    7  A    between atoms: C7_15  and  C8_17
REMARK    8  A    between atoms: C8_17  and  O8_18
REMARK    9  A    between atoms: C8_17  and  C9_19
REMARK   10  A    between atoms: C9_19  and  O9_20
REMARK                            x       y       z     vdW  Elec       q    Type
REMARK                         _______ _______ _______ _____ _____    ______ ____
ROOT
ATOM      1  C2  ZMR A 466      -2.839  57.536  -7.469  0.00  0.00    +0.000 C 
ATOM      2  C3  ZMR A 466      -3.697  57.899  -8.437  0.00  0.00    +0.000 C 
ATOM      3  C4  ZMR A 466      -4.103  56.935  -9.510  0.00  0.00    +0.000 C 
ATOM      4  C5  ZMR A 466      -3.764  55.529  -9.166  0.00  0.00    +0.000 C 
ATOM      5  C6  ZMR A 466      -2.332  55.503  -8.553  0.00  0.00    +0.000 C 
ATOM      6  O6  ZMR A 466      -2.276  56.345  -7.406  0.00  0.00    +0.000 OA
ENDROOT
BRANCH   3   7
ATOM      7  NE  ZMR A 466      -5.502  57.026  -9.869  0.00  0.00    +0.000 N 
ATOM      8  CZ  ZMR A 466      -5.900  57.441 -11.068  0.00  0.00    +0.000 C 
ATOM      9  NH1 ZMR A 466      -5.031  57.932 -11.958  0.00  0.00    +0.000 NA
ATOM     10  NH2 ZMR A 466      -7.182  57.293 -11.393  0.00  0.00    +0.000 N 
ATOM     11  H01 ZMR A 466      -4.055  58.018 -11.716  0.00  0.00    +0.000 HD
ATOM     12  H02 ZMR A 466      -7.829  56.898 -10.726  0.00  0.00    +0.000 HD
ATOM     13  H03 ZMR A 466      -7.507  57.577 -12.306  0.00  0.00    +0.000 HD
ATOM     14  H05 ZMR A 466      -6.199  56.766  -9.186  0.00  0.00    +0.000 HD
ENDBRANCH   3   7
BRANCH   4  15
ATOM     15  N5  ZMR A 466      -3.777  54.695 -10.359  0.00  0.00    +0.000 N 
ATOM     16  C10 ZMR A 466      -3.075  54.967 -11.463  0.00  0.00    +0.000 C 
ATOM     17  O10 ZMR A 466      -2.476  56.007 -11.646  0.00  0.00    +0.000 OA
ATOM     18  C11 ZMR A 466      -3.056  53.855 -12.493  0.00  0.00    +0.000 C 
ATOM     19  H06 ZMR A 466      -4.349  53.863 -10.351  0.00  0.00    +0.000 HD
ENDBRANCH   4  15
BRANCH   1  20
ATOM     20  C1  ZMR A 466      -2.486  58.489  -6.402  0.00  0.00    +0.000 C 
ATOM     21  O1A ZMR A 466      -3.387  58.681  -5.434  0.00  0.00    +0.000 OA
BRANCH  20  22
ATOM     22  O1B ZMR A 466      -1.435  59.045  -6.458  0.00  0.00    +0.000 OA
ATOM     23  H04 ZMR A 466      -0.850  58.564  -7.046  0.00  0.00    +0.000 HD
ENDBRANCH  20  22
ENDBRANCH   1  20
BRANCH   5  24
ATOM     24  C7  ZMR A 466      -1.696  54.149  -8.279  0.00  0.00    +0.000 C 
BRANCH  24  25
ATOM     25  O7  ZMR A 466      -1.442  54.565  -7.288  0.00  0.00    +0.000 OA
ATOM     26  H07 ZMR A 466      -1.582  55.514  -7.294  0.00  0.00    +0.000 HD
ENDBRANCH  24  25
BRANCH  24  27
ATOM     27  C8  ZMR A 466      -0.759  53.683  -9.267  0.00  0.00    +0.000 C 
BRANCH  27  28
ATOM     28  O8  ZMR A 466      -0.430  52.383  -8.770  0.00  0.00    +0.000 OA
ATOM     29  H08 ZMR A 466      -1.219  51.963  -8.422  0.00  0.00    +0.000 HD
ENDBRANCH  27  28
BRANCH  27  30
ATOM     30  C9  ZMR A 466       0.513  54.517  -9.406  0.00  0.00    +0.000 C 
BRANCH  30  31
ATOM     31  O9  ZMR A 466       1.496  53.796 -10.149  0.00  0.00    +0.000 OA
ATOM     32  H09 ZMR A 466       2.355  53.905  -9.734  0.00  0.00    +0.000 HD
ENDBRANCH  30  31
ENDBRANCH  27  30
ENDBRANCH  24  27
ENDBRANCH   5  24
TORSDOF 10
ENDMDL
MODEL 5
REMARK VINA RESULT:    -6.993      2.208      2.831
REMARK INTER + INTRA:         -11.804
REMARK INTER:                 -10.809
REMARK INTRA:                  -0.995
REMARK UNBOUND:                -1.540
REMARK  Name = 1A4G-ZMR.pdb
REMARK  10 active torsions:
REMARK  status: ('A' for Active; 'I' for Inactive)
REMARK    1  A    between atoms: NE_1  and  C4_10
REMARK    2  A    between atoms: C1_5  and  O1B_7
REMARK    3  A    between atoms: C1_5  and  C2_8
REMARK    4  A    between atoms: C5_11  and  N5_12
REMARK    5  A    between atoms: C6_13  and  C7_15
REMARK    6  A    between atoms: C7_15  and  O7_16
REMARK    7  A    between atoms: C7_15  and  C8_17
REMARK    8  A    between atoms: C8_17  and  O8_18
REMARK    9  A    between atoms: C8_17  and  C9_19
REMARK   10  A    between atoms: C9_19  and  O9_20
REMARK                            x       y       z     vdW  Elec       q    Type
REMARK                         _______ _______ _______ _____ _____    ______ ____
ROOT
ATOM      1  C2  ZMR A 466      -1.975  57.140  -7.880  0.00  0.00    +0.000 C 
ATOM      2  C3  ZMR A 466      -2.313  55.918  -8.325  0.00  0.00    +0.000 C 
ATOM      3  C4  ZMR A 466      -3.214  55.750  -9.510  0.00  0.00    +0.000 C 
ATOM      4  C5  ZMR A 466      -3.356  57.003 -10.297  0.00  0.00    +0.000 C 
ATOM      5  C6  ZMR A 466      -3.535  58.191  -9.305  0.00  0.00    +0.000 C 
ATOM      6  O6  ZMR A 466      -2.423  58.259  -8.417  0.00  0.00    +0.000 OA
ENDROOT
BRANCH   3   7
ATOM      7  NE  ZMR A 466      -2.822  54.666 -10.385  0.00  0.00    +0.000 N 
ATOM      8  CZ  ZMR A 466      -3.306  53.435 -10.248  0.00  0.00    +0.000 C 
ATOM      9  NH1 ZMR A 466      -4.073  53.100  -9.204  0.00  0.00    +0.000 NA
ATOM     10  NH2 ZMR A 466      -3.066  52.552 -11.213  0.00  0.00    +0.000 N 
ATOM     11  H01 ZMR A 466      -4.274  53.782  -8.486  0.00  0.00    +0.000 HD
ATOM     12  H02 ZMR A 466      -2.508  52.817 -12.012  0.00  0.00    +0.000 HD
ATOM     13  H03 ZMR A 466      -3.442  51.617 -11.147  0.00  0.00    +0.000 HD
ATOM     14  H05 ZMR A 466      -2.159  54.850 -11.124  0.00  0.00    +0.000 HD
ENDBRANCH   3   7
BRANCH   4  15
ATOM     15  N5  ZMR A 466      -4.526  56.934 -11.160  0.00  0.00    +0.000 N 
ATOM     16  C10 ZMR A 466      -4.538  57.352 -12.429  0.00  0.00    +0.000 C 
ATOM     17  O10 ZMR A 466      -3.629  57.967 -12.948  0.00  0.00    +0.000 OA
ATOM     18  C11 ZMR A 466      -5.784  56.981 -13.207  0.00  0.00    +0.000 C 
ATOM     19  H06 ZMR A 466      -5.377  56.549 -10.777  0.00  0.00    +0.000 HD
ENDBRANCH   4  15
BRANCH   1  20
ATOM     20  C1  ZMR A 466      -1.054  57.280  -6.738  0.00  0.00    +0.000 C 
ATOM     21  O1A ZMR A 466      -0.836  56.192  -5.995  0.00  0.00    +0.000 OA
BRANCH  20  22
ATOM     22  O1B ZMR A 466      -0.565  58.344  -6.528  0.00  0.00    +0.000 OA
ATOM     23  H04 ZMR A 466      -0.977  58.739  -5.757  0.00  0.00    +0.000 HD
ENDBRANCH  20  22
ENDBRANCH   1  20
BRANCH   5  24
ATOM     24  C7  ZMR A 466      -3.869  59.559  -9.879  0.00  0.00    +0.000 C 
BRANCH  24  25
ATOM     25  O7  ZMR A 466      -2.827  59.823  -9.629  0.00  0.00    +0.000 OA
ATOM     26  H07 ZMR A 466      -2.250  59.086  -9.840  0.00  0.00    +0.000 HD
ENDBRANCH  24  25
BRANCH  24  27
ATOM     27  C8  ZMR A 466      -5.052  60.188  -9.353  0.00  0.00    +0.000 C 
BRANCH  27  28
ATOM     28  O8  ZMR A 466      -4.851  60.061  -7.943  0.00  0.00    +0.000 OA
ATOM     29  H08 ZMR A 466      -5.392  59.344  -7.605  0.00  0.00    +0.000 HD
ENDBRANCH  27  28
BRANCH  27  30
ATOM     30  C9  ZMR A 466      -6.373  59.528  -9.745  0.00  0.00    +0.000 C 
BRANCH  30  31
ATOM     31  O9  ZMR A 466      -6.882  58.761  -8.654  0.00  0.00    +0.000 OA
ATOM     32  H09 ZMR A 466      -7.353  57.996  -8.993  0.00  0.00    +0.000 HD
ENDBRANCH  30  31
ENDBRANCH  27  30
ENDBRANCH  24  27
ENDBRANCH   5  24
TORSDOF 10
ENDMDL
MODEL 6
REMARK VINA RESULT:    -6.857      1.383      1.430
REMARK INTER + INTRA:         -11.604
REMARK INTER:                 -10.090
REMARK INTRA:                  -1.515
REMARK UNBOUND:                -1.540
REMARK  Name = 1A4G-ZMR.pdb
REMARK  10 active torsions:
REMARK  status: ('A' for Active; 'I' for Inactive)
REMARK    1  A    between atoms: NE_1  and  C4_10
REMARK    2  A    between atoms: C1_5  and  O1B_7
REMARK    3  A    between atoms: C1_5  and  C2_8
REMARK    4  A    between atoms: C5_11  and  N5_12
REMARK    5  A    between atoms: C6_13  and  C7_15
REMARK    6  A    between atoms: C7_15  and  O7_16
REMARK    7  A    between atoms: C7_15  and  C8_17
REMARK    8  A    between atoms: C8_17  and  O8_18
REMARK    9  A    between atoms: C8_17  and  C9_19
REMARK   10  A    between atoms: C9_19  and  O9_20
REMARK                            x       y       z     vdW  Elec       q    Type
REMARK                         _______ _______ _______ _____ _____    ______ ____
ROOT
ATOM      1  C2  ZMR A 466      -1.910  58.479  -7.011  0.00  0.00    +0.000 C 
ATOM      2  C3  ZMR A 466      -1.500  57.200  -6.971  0.00  0.00    +0.000 C 
ATOM      3  C4  ZMR A 466      -1.894  56.229  -8.042  0.00  0.00    +0.000 C 
ATOM      4  C5  ZMR A 466      -2.427  56.907  -9.253  0.00  0.00    +0.000 C 
ATOM      5  C6  ZMR A 466      -3.388  58.046  -8.798  0.00  0.00    +0.000 C 
ATOM      6  O6  ZMR A 466      -2.697  58.961  -7.953  0.00  0.00    +0.000 OA
ENDROOT
BRANCH   3   7
ATOM      7  NE  ZMR A 466      -0.832  55.322  -8.419  0.00  0.00    +0.000 N 
ATOM      8  CZ  ZMR A 466      -1.026  54.011  -8.530  0.00  0.00    +0.000 C 
ATOM      9  NH1 ZMR A 466      -2.180  53.444  -8.160  0.00  0.00    +0.000 NA
ATOM     10  NH2 ZMR A 466      -0.065  53.276  -9.084  0.00  0.00    +0.000 N 
ATOM     11  H01 ZMR A 466      -2.915  54.010  -7.763  0.00  0.00    +0.000 HD
ATOM     12  H02 ZMR A 466       0.794  53.712  -9.385  0.00  0.00    +0.000 HD
ATOM     13  H03 ZMR A 466      -0.196  52.282  -9.203  0.00  0.00    +0.000 HD
ATOM     14  H05 ZMR A 466       0.088  55.697  -8.603  0.00  0.00    +0.000 HD
ENDBRANCH   3   7
BRANCH   4  15
ATOM     15  N5  ZMR A 466      -3.173  55.968 -10.077  0.00  0.00    +0.000 N 
ATOM     16  C10 ZMR A 466      -2.752  55.525 -11.265  0.00  0.00    +0.000 C 
ATOM     17  O10 ZMR A 466      -1.785  55.970 -11.850  0.00  0.00    +0.000 OA
ATOM     18  C11 ZMR A 466      -3.568  54.387 -11.844  0.00  0.00    +0.000 C 
ATOM     19  H06 ZMR A 466      -4.060  55.631  -9.730  0.00  0.00    +0.000 HD
ENDBRANCH   4  15
BRANCH   1  20
ATOM     20  C1  ZMR A 466      -1.475  59.424  -5.967  0.00  0.00    +0.000 C 
ATOM     21  O1A ZMR A 466      -0.161  59.613  -5.825  0.00  0.00    +0.000 OA
BRANCH  20  22
ATOM     22  O1B ZMR A 466      -2.304  59.959  -5.302  0.00  0.00    +0.000 OA
ATOM     23  H04 ZMR A 466      -2.780  60.599  -5.836  0.00  0.00    +0.000 HD
ENDBRANCH  20  22
ENDBRANCH   1  20
BRANCH   5  24
ATOM     24  C7  ZMR A 466      -4.190  58.775  -9.865  0.00  0.00    +0.000 C 
BRANCH  24  25
ATOM     25  O7  ZMR A 466      -3.373  59.517  -9.850  0.00  0.00    +0.000 OA
ATOM     26  H07 ZMR A 466      -3.731  60.383  -9.644  0.00  0.00    +0.000 HD
ENDBRANCH  24  25
BRANCH  24  27
ATOM     27  C8  ZMR A 466      -5.571  59.029  -9.548  0.00  0.00    +0.000 C 
BRANCH  27  28
ATOM     28  O8  ZMR A 466      -5.458  59.873  -8.399  0.00  0.00    +0.000 OA
ATOM     29  H08 ZMR A 466      -6.236  59.769  -7.847  0.00  0.00    +0.000 HD
ENDBRANCH  27  28
BRANCH  27  30
ATOM     30  C9  ZMR A 466      -6.399  57.794  -9.198  0.00  0.00    +0.000 C 
BRANCH  30  31
ATOM     31  O9  ZMR A 466      -6.232  56.789 -10.197  0.00  0.00    +0.000 OA
ATOM     32  H09 ZMR A 466      -6.866  56.932 -10.904  0.00  0.00    +0.000 HD
ENDBRANCH  30  31
ENDBRANCH  27  30
ENDBRANCH  24  27
ENDBRANCH   5  24
TORSDOF 10
ENDMDL
MODEL 7
REMARK VINA RESULT:    -6.779      3.231      5.600
REMARK INTER + INTRA:         -11.490
REMARK INTER:                  -9.956
REMARK INTRA:                  -1.533
REMARK UNBOUND:                -1.540
REMARK  Name = 1A4G-ZMR.pdb
REMARK  10 active torsions:
REMARK  status: ('A' for Active; 'I' for Inactive)
REMARK    1  A    between atoms: NE_1  and  C4_10
REMARK    2  A    between atoms: C1_5  and  O1B_7
REMARK    3  A    between atoms: C1_5  and  C2_8
REMARK    4  A    between atoms: C5_11  and  N5_12
REMARK    5  A    between atoms: C6_13  and  C7_15
REMARK    6  A    between atoms: C7_15  and  O7_16
REMARK    7  A    between atoms: C7_15  and  C8_17
REMARK    8  A    between atoms: C8_17  and  O8_18
REMARK    9  A    between atoms: C8_17  and  C9_19
REMARK   10  A    between atoms: C9_19  and  O9_20
REMARK                            x       y       z     vdW  Elec       q    Type
REMARK                         _______ _______ _______ _____ _____    ______ ____
ROOT
ATOM      1  C2  ZMR A 466      -2.912  55.329  -8.832  0.00  0.00    +0.000 C 
ATOM      2  C3  ZMR A 466      -3.892  55.337  -9.750  0.00  0.00    +0.000 C 
ATOM      3  C4  ZMR A 466      -4.581  56.611 -10.133  0.00  0.00    +0.000 C 
ATOM      4  C5  ZMR A 466      -3.834  57.815  -9.687  0.00  0.00    +0.000 C 
ATOM      5  C6  ZMR A 466      -3.329  57.573  -8.233  0.00  0.00    +0.000 C 
ATOM      6  O6  ZMR A 466      -2.510  56.409  -8.188  0.00  0.00    +0.000 OA
ENDROOT
BRANCH   3   7
ATOM      7  NE  ZMR A 466      -4.868  56.710 -11.548  0.00  0.00    +0.000 N 
ATOM      8  CZ  ZMR A 466      -6.058  57.089 -12.005  0.00  0.00    +0.000 C 
ATOM      9  NH1 ZMR A 466      -7.098  57.261 -11.181  0.00  0.00    +0.000 NA
ATOM     10  NH2 ZMR A 466      -6.178  57.361 -13.302  0.00  0.00    +0.000 N 
ATOM     11  H01 ZMR A 466      -6.995  57.077 -10.194  0.00  0.00    +0.000 HD
ATOM     12  H02 ZMR A 466      -5.383  57.255 -13.915  0.00  0.00    +0.000 HD
ATOM     13  H03 ZMR A 466      -7.063  57.675 -13.672  0.00  0.00    +0.000 HD
ATOM     14  H05 ZMR A 466      -4.140  56.484 -12.211  0.00  0.00    +0.000 HD
ENDBRANCH   3   7
BRANCH   4  15
ATOM     15  N5  ZMR A 466      -4.701  58.985  -9.691  0.00  0.00    +0.000 N 
ATOM     16  C10 ZMR A 466      -4.398  60.132 -10.306  0.00  0.00    +0.000 C 
ATOM     17  O10 ZMR A 466      -3.312  60.373 -10.793  0.00  0.00    +0.000 OA
ATOM     18  C11 ZMR A 466      -5.533  61.133 -10.377  0.00  0.00    +0.000 C 
ATOM     19  H06 ZMR A 466      -5.583  58.925  -9.202  0.00  0.00    +0.000 HD
ENDBRANCH   4  15
BRANCH   1  20
ATOM     20  C1  ZMR A 466      -2.221  54.071  -8.502  0.00  0.00    +0.000 C 
ATOM     21  O1A ZMR A 466      -2.217  53.695  -7.220  0.00  0.00    +0.000 OA
BRANCH  20  22
ATOM     22  O1B ZMR A 466      -1.695  53.462  -9.379  0.00  0.00    +0.000 OA
ATOM     23  H04 ZMR A 466      -1.748  52.522  -9.193  0.00  0.00    +0.000 HD
ENDBRANCH  20  22
ENDBRANCH   1  20
BRANCH   5  24
ATOM     24  C7  ZMR A 466      -2.681  58.736  -7.497  0.00  0.00    +0.000 C 
BRANCH  24  25
ATOM     25  O7  ZMR A 466      -2.072  58.861  -8.409  0.00  0.00    +0.000 OA
ATOM     26  H07 ZMR A 466      -2.098  58.053  -8.926  0.00  0.00    +0.000 HD
ENDBRANCH  24  25
BRANCH  24  27
ATOM     27  C8  ZMR A 466      -2.182  58.444  -6.179  0.00  0.00    +0.000 C 
BRANCH  27  28
ATOM     28  O8  ZMR A 466      -3.361  58.584  -5.381  0.00  0.00    +0.000 OA
ATOM     29  H08 ZMR A 466      -3.262  59.336  -4.793  0.00  0.00    +0.000 HD
ENDBRANCH  27  28
BRANCH  27  30
ATOM     30  C9  ZMR A 466      -1.099  59.391  -5.665  0.00  0.00    +0.000 C 
BRANCH  30  31
ATOM     31  O9  ZMR A 466       0.062  59.307  -6.491  0.00  0.00    +0.000 OA
ATOM     32  H09 ZMR A 466       0.158  60.121  -6.991  0.00  0.00    +0.000 HD
ENDBRANCH  30  31
ENDBRANCH  27  30
ENDBRANCH  24  27
ENDBRANCH   5  24
TORSDOF 10
ENDMDL
MODEL 8
REMARK VINA RESULT:    -6.627      3.104      4.877
REMARK INTER + INTRA:         -11.267
REMARK INTER:                  -9.865
REMARK INTRA:                  -1.402
REMARK UNBOUND:                -1.540
REMARK  Name = 1A4G-ZMR.pdb
REMARK  10 active torsions:
REMARK  status: ('A' for Active; 'I' for Inactive)
REMARK    1  A    between atoms: NE_1  and  C4_10
REMARK    2  A    between atoms: C1_5  and  O1B_7
REMARK    3  A    between atoms: C1_5  and  C2_8
REMARK    4  A    between atoms: C5_11  and  N5_12
REMARK    5  A    between atoms: C6_13  and  C7_15
REMARK    6  A    between atoms: C7_15  and  O7_16
REMARK    7  A    between atoms: C7_15  and  C8_17
REMARK    8  A    between atoms: C8_17  and  O8_18
REMARK    9  A    between atoms: C8_17  and  C9_19
REMARK   10  A    between atoms: C9_19  and  O9_20
REMARK                            x       y       z     vdW  Elec       q    Type
REMARK                         _______ _______ _______ _____ _____    ______ ____
ROOT
ATOM      1  C2  ZMR A 466      -2.488  56.846  -8.189  0.00  0.00    +0.000 C 
ATOM      2  C3  ZMR A 466      -2.465  57.981  -8.906  0.00  0.00    +0.000 C 
ATOM      3  C4  ZMR A 466      -3.290  58.126 -10.149  0.00  0.00    +0.000 C 
ATOM      4  C5  ZMR A 466      -4.341  57.081 -10.256  0.00  0.00    +0.000 C 
ATOM      5  C6  ZMR A 466      -3.720  55.711  -9.851  0.00  0.00    +0.000 C 
ATOM      6  O6  ZMR A 466      -3.194  55.784  -8.529  0.00  0.00    +0.000 OA
ENDROOT
BRANCH   3   7
ATOM      7  NE  ZMR A 466      -3.886  59.436 -10.298  0.00  0.00    +0.000 N 
ATOM      8  CZ  ZMR A 466      -3.539  60.265 -11.279  0.00  0.00    +0.000 C 
ATOM      9  NH1 ZMR A 466      -2.517  59.987 -12.096  0.00  0.00    +0.000 NA
ATOM     10  NH2 ZMR A 466      -4.278  61.353 -11.475  0.00  0.00    +0.000 N 
ATOM     11  H01 ZMR A 466      -1.975  59.147 -11.959  0.00  0.00    +0.000 HD
ATOM     12  H02 ZMR A 466      -5.064  61.545 -10.871  0.00  0.00    +0.000 HD
ATOM     13  H03 ZMR A 466      -4.053  61.987 -12.228  0.00  0.00    +0.000 HD
ATOM     14  H05 ZMR A 466      -4.588  59.731  -9.635  0.00  0.00    +0.000 HD
ENDBRANCH   3   7
BRANCH   4  15
ATOM     15  N5  ZMR A 466      -4.829  56.986 -11.624  0.00  0.00    +0.000 N 
ATOM     16  C10 ZMR A 466      -6.099  57.207 -11.977  0.00  0.00    +0.000 C 
ATOM     17  O10 ZMR A 466      -7.006  57.360 -11.184  0.00  0.00    +0.000 OA
ATOM     18  C11 ZMR A 466      -6.340  57.278 -13.472  0.00  0.00    +0.000 C 
ATOM     19  H06 ZMR A 466      -4.170  56.739 -12.349  0.00  0.00    +0.000 HD
ENDBRANCH   4  15
BRANCH   1  20
ATOM     20  C1  ZMR A 466      -1.700  56.742  -6.948  0.00  0.00    +0.000 C 
ATOM     21  O1A ZMR A 466      -1.627  57.832  -6.180  0.00  0.00    +0.000 OA
BRANCH  20  22
ATOM     22  O1B ZMR A 466      -1.163  55.710  -6.698  0.00  0.00    +0.000 OA
ATOM     23  H04 ZMR A 466      -0.415  55.871  -6.119  0.00  0.00    +0.000 HD
ENDBRANCH  20  22
ENDBRANCH   1  20
BRANCH   5  24
ATOM     24  C7  ZMR A 466      -4.560  54.458 -10.045  0.00  0.00    +0.000 C 
BRANCH  24  25
ATOM     25  O7  ZMR A 466      -5.153  54.828  -9.190  0.00  0.00    +0.000 OA
ATOM     26  H07 ZMR A 466      -5.235  55.782  -9.246  0.00  0.00    +0.000 HD
ENDBRANCH  24  25
BRANCH  24  27
ATOM     27  C8  ZMR A 466      -3.833  53.217 -10.098  0.00  0.00    +0.000 C 
BRANCH  27  28
ATOM     28  O8  ZMR A 466      -3.362  53.095  -8.753  0.00  0.00    +0.000 OA
ATOM     29  H08 ZMR A 466      -2.888  53.892  -8.505  0.00  0.00    +0.000 HD
ENDBRANCH  27  28
BRANCH  27  30
ATOM     30  C9  ZMR A 466      -2.647  53.195 -11.060  0.00  0.00    +0.000 C 
BRANCH  30  31
ATOM     31  O9  ZMR A 466      -1.443  52.903 -10.352  0.00  0.00    +0.000 OA
ATOM     32  H09 ZMR A 466      -0.687  53.127 -10.900  0.00  0.00    +0.000 HD
ENDBRANCH  30  31
ENDBRANCH  27  30
ENDBRANCH  24  27
ENDBRANCH   5  24
TORSDOF 10
ENDMDL
MODEL 9
REMARK VINA RESULT:    -6.333      2.196      4.842
REMARK INTER + INTRA:         -10.835
REMARK INTER:                  -9.885
REMARK INTRA:                  -0.950
REMARK UNBOUND:                -1.540
REMARK  Name = 1A4G-ZMR.pdb
REMARK  10 active torsions:
REMARK  status: ('A' for Active; 'I' for Inactive)
REMARK    1  A    between atoms: NE_1  and  C4_10
REMARK    2  A    between atoms: C1_5  and  O1B_7
REMARK    3  A    between atoms: C1_5  and  C2_8
REMARK    4  A    between atoms: C5_11  and  N5_12
REMARK    5  A    between atoms: C6_13  and  C7_15
REMARK    6  A    between atoms: C7_15  and  O7_16
REMARK    7  A    between atoms: C7_15  and  C8_17
REMARK    8  A    between atoms: C8_17  and  O8_18
REMARK    9  A    between atoms: C8_17  and  C9_19
REMARK   10  A    between atoms: C9_19  and  O9_20
REMARK                            x       y       z     vdW  Elec       q    Type
REMARK                         _______ _______ _______ _____ _____    ______ ____
ROOT
ATOM      1  C2  ZMR A 466      -4.627  57.577 -11.972  0.00  0.00    +0.000 C 
ATOM      2  C3  ZMR A 466      -3.866  56.527 -12.322  0.00  0.00    +0.000 C 
ATOM      3  C4  ZMR A 466      -3.180  55.691 -11.284  0.00  0.00    +0.000 C 
ATOM      4  C5  ZMR A 466      -3.724  55.922  -9.921  0.00  0.00    +0.000 C 
ATOM      5  C6  ZMR A 466      -3.926  57.454  -9.723  0.00  0.00    +0.000 C 
ATOM      6  O6  ZMR A 466      -4.801  57.965 -10.724  0.00  0.00    +0.000 OA
ENDROOT
BRANCH   3   7
ATOM      7  NE  ZMR A 466      -3.194  54.275 -11.582  0.00  0.00    +0.000 N 
ATOM      8  CZ  ZMR A 466      -2.084  53.542 -11.590  0.00  0.00    +0.000 C 
ATOM      9  NH1 ZMR A 466      -0.877  54.105 -11.462  0.00  0.00    +0.000 NA
ATOM     10  NH2 ZMR A 466      -2.203  52.219 -11.660  0.00  0.00    +0.000 N 
ATOM     11  H01 ZMR A 466      -0.794  55.108 -11.384  0.00  0.00    +0.000 HD
ATOM     12  H02 ZMR A 466      -3.118  51.797 -11.730  0.00  0.00    +0.000 HD
ATOM     13  H03 ZMR A 466      -1.378  51.636 -11.642  0.00  0.00    +0.000 HD
ATOM     14  H05 ZMR A 466      -4.075  53.828 -11.792  0.00  0.00    +0.000 HD
ENDBRANCH   3   7
BRANCH   4  15
ATOM     15  N5  ZMR A 466      -2.793  55.439  -8.911  0.00  0.00    +0.000 N 
ATOM     16  C10 ZMR A 466      -2.775  54.182  -8.459  0.00  0.00    +0.000 C 
ATOM     17  O10 ZMR A 466      -3.621  53.353  -8.725  0.00  0.00    +0.000 OA
ATOM     18  C11 ZMR A 466      -1.586  53.840  -7.584  0.00  0.00    +0.000 C 
ATOM     19  H06 ZMR A 466      -2.123  56.092  -8.532  0.00  0.00    +0.000 HD
ENDBRANCH   4  15
BRANCH   1  20
ATOM     20  C1  ZMR A 466      -5.323  58.359 -13.008  0.00  0.00    +0.000 C 
ATOM     21  O1A ZMR A 466      -6.327  57.759 -13.653  0.00  0.00    +0.000 OA
BRANCH  20  22
ATOM     22  O1B ZMR A 466      -4.956  59.470 -13.228  0.00  0.00    +0.000 OA
ATOM     23  H04 ZMR A 466      -5.695  60.075 -13.139  0.00  0.00    +0.000 HD
ENDBRANCH  20  22
ENDBRANCH   1  20
BRANCH   5  24
ATOM     24  C7  ZMR A 466      -4.316  57.952  -8.339  0.00  0.00    +0.000 C 
BRANCH  24  25
ATOM     25  O7  ZMR A 466      -5.336  58.041  -8.753  0.00  0.00    +0.000 OA
ATOM     26  H07 ZMR A 466      -5.855  58.628  -8.199  0.00  0.00    +0.000 HD
ENDBRANCH  24  25
BRANCH  24  27
ATOM     27  C8  ZMR A 466      -3.518  59.027  -7.812  0.00  0.00    +0.000 C 
BRANCH  27  28
ATOM     28  O8  ZMR A 466      -2.693  59.358  -8.932  0.00  0.00    +0.000 OA
ATOM     29  H08 ZMR A 466      -1.775  59.177  -8.719  0.00  0.00    +0.000 HD
ENDBRANCH  27  28
BRANCH  27  30
ATOM     30  C9  ZMR A 466      -2.639  58.664  -6.617  0.00  0.00    +0.000 C 
BRANCH  30  31
ATOM     31  O9  ZMR A 466      -3.426  58.599  -5.428  0.00  0.00    +0.000 OA
ATOM     32  H09 ZMR A 466      -2.932  58.976  -4.696  0.00  0.00    +0.000 HD
ENDBRANCH  30  31
ENDBRANCH  27  30
ENDBRANCH  24  27
ENDBRANCH   5  24
TORSDOF 10
ENDMDL
