MODEL        1
REMARK  Name = ZINC02343329
REMARK  12 active torsions:
REMARK  status: ('A' for Active; 'I' for Inactive)
REMARK    1  A    between atoms: C_1  and  C_2
REMARK    2  A    between atoms: C_2  and  N_22
REMARK    3  A    between atoms: C_3  and  C_4
REMARK    4  A    between atoms: C_3  and  N_22
REMARK    5  A    between atoms: C_5  and  C_6
REMARK    6  A    between atoms: C_5  and  N_22
REMARK    7  A    between atoms: C_6  and  N_7
REMARK    8  A    between atoms: N_7  and  N_8
REMARK    9  A    between atoms: N_8  and  C_9
REMARK   10  A    between atoms: C_9  and  C_11
REMARK   11  A    between atoms: N_14  and  C_21
REMARK   12  A    between atoms: N_17  and  C_20
REMARK                            x       y       z     vdW  Elec       q    Type
REMARK                         _______ _______ _______ _____ _____    ______ ____
ROOT
ATOM      1  C   UNL     1      -1.205   0.079  -2.377  0.00  0.00    +0.000 C 
ATOM      2  C   UNL     1      -1.750  -0.886  -1.661  0.00  0.00    +0.000 C 
ENDROOT
BRANCH   1   3
ATOM      3  C   UNL     1      -1.839   0.502  -3.678  0.00  0.00    +0.000 A 
ATOM      4  C   UNL     1      -0.893   0.132  -4.805  0.00  0.00    +0.000 A 
ATOM      5  O   UNL     1      -0.537  -1.014  -4.977  0.00  0.00    +0.000 OA
ATOM      6  N   UNL     1      -0.464   1.127  -5.611  0.00  0.00    +0.000 N 
ATOM      7  C   UNL     1      -0.847   2.396  -5.434  0.00  0.00    +0.000 A 
ATOM      8  O   UNL     1      -0.412   3.228  -6.206  0.00  0.00    +0.000 OA
ATOM      9  N   UNL     1      -1.675   2.817  -4.471  0.00  0.00    +0.000 N 
ATOM     10  C   UNL     1      -2.209   1.969  -3.567  0.00  0.00    +0.000 A 
ATOM     11  O   UNL     1      -2.958   2.364  -2.700  0.00  0.00    +0.000 OA
ATOM     12  C   UNL     1      -2.011   4.241  -4.395  0.00  0.00    +0.000 C 
ATOM     13  C   UNL     1       0.449   0.806  -6.711  0.00  0.00    +0.000 C 
ENDBRANCH   1   3
BRANCH   1  14
ATOM     14  N   UNL     1      -0.048   0.706  -1.932  0.00  0.00    +0.000 N 
ATOM     15  H   UNL     1       0.377   1.460  -2.491  0.00  0.00    +0.000 HD
BRANCH  14  16
ATOM     16  N   UNL     1       0.526   0.323  -0.753  0.00  0.00    +0.000 NA
ATOM     17  H   UNL     1       0.777  -0.675  -0.807  0.00  0.00    +0.000 HD
BRANCH  16  18
ATOM     18  C   UNL     1       1.734   1.112  -0.475  0.00  0.00    +0.000 C 
BRANCH  18  19
ATOM     19  C   UNL     1       2.347   0.655   0.850  0.00  0.00    +0.000 C 
BRANCH  19  20
ATOM     20  N   UNL     1       3.572   1.443   1.105  0.00  0.00    +0.000 N 
ATOM     21  H   UNL     1       4.178   1.398   0.273  0.00  0.00    +0.000 HD
BRANCH  20  22
ATOM     22  C   UNL     1       4.301   0.882   2.262  0.00  0.00    +0.000 C 
ATOM     23  C   UNL     1       5.716   1.464   2.280  0.00  0.00    +0.000 C 
ENDBRANCH  20  22
BRANCH  20  25
ATOM     24  C   UNL     1       2.297   2.961   2.582  0.00  0.00    +0.000 C 
ATOM     25  C   UNL     1       3.219   2.854   1.366  0.00  0.00    +0.000 C 
ENDBRANCH  20  25
ENDBRANCH  19  20
ENDBRANCH  18  19
ENDBRANCH  16  18
ENDBRANCH  14  16
ENDBRANCH   1  14
TORSDOF 8
ENDMDL
MODEL        2
REMARK  Name = ZINC26490873
REMARK  9 active torsions:
REMARK  status: ('A' for Active; 'I' for Inactive)
REMARK    1  A    between atoms: N_3  and  C_9
REMARK    2  A    between atoms: C_12  and  C_14
REMARK    3  A    between atoms: C_14  and  O_15
REMARK    4  A    between atoms: O_15  and  C_16
REMARK    5  A    between atoms: C_16  and  O_18
REMARK    6  A    between atoms: O_18  and  C_19
REMARK    7  A    between atoms: C_19  and  C_20
REMARK    8  A    between atoms: C_20  and  C_21
REMARK    9  A    between atoms: C_21  and  N_22
REMARK                            x       y       z     vdW  Elec       q    Type
REMARK                         _______ _______ _______ _____ _____    ______ ____
ROOT
ATOM      1  C   UNL     1      -3.591   0.192  -0.771  0.00  0.00    +0.000 C 
ATOM      2  C   UNL     1      -3.728   0.917   0.604  0.00  0.00    +0.000 C 
ATOM      3  S   UNL     1      -2.345   0.075   1.494  0.00  0.00    +0.000 S 
ATOM      4  C   UNL     1      -1.433  -0.534   0.013  0.00  0.00    +0.000 C 
ATOM      5  O   UNL     1      -2.200   0.034  -1.075  0.00  0.00    +0.000 OA
ENDROOT
BRANCH   1   8
ATOM      6  C   UNL     1      -4.098   2.188  -3.829  0.00  0.00    +0.000 A 
ATOM      7  C   UNL     1      -3.495   1.447  -2.870  0.00  0.00    +0.000 A 
ATOM      8  N   UNL     1      -4.231   0.996  -1.816  0.00  0.00    +0.000 N 
ATOM      9  C   UNL     1      -5.544   1.279  -1.732  0.00  0.00    +0.000 A 
ATOM     10  O   UNL     1      -6.188   0.863  -0.783  0.00  0.00    +0.000 OA
ATOM     11  N   UNL     1      -6.150   2.012  -2.664  0.00  0.00    +0.000 NA
ATOM     12  C   UNL     1      -5.474   2.473  -3.709  0.00  0.00    +0.000 A 
ATOM     13  N   UNL     1      -6.112   3.223  -4.669  0.00  0.00    +0.000 N 
ATOM     14  H   UNL     1      -5.582   3.578  -5.478  0.00  0.00    +0.000 HD
ATOM     15  H   UNL     1      -7.117   3.430  -4.580  0.00  0.00    +0.000 HD
ENDBRANCH   1   8
BRANCH   4  16
ATOM     16  C   UNL     1       0.002  -0.004   0.002  0.00  0.00    +0.000 C 
BRANCH  16  17
ATOM     17  O   UNL     1      -0.018   1.448   0.010  0.00  0.00    +0.000 OA
BRANCH  17  18
ATOM     18  C   UNL     1       1.173   2.075   0.002  0.00  0.00    +0.000 C 
ATOM     19  O   UNL     1       2.200   1.427  -0.011  0.00  0.00    +0.000 OA
BRANCH  18  20
ATOM     20  O   UNL     1       1.225   3.419   0.009  0.00  0.00    +0.000 OA
BRANCH  20  21
ATOM     21  C   UNL     1       2.543   4.028  -0.001  0.00  0.00    +0.000 C 
BRANCH  21  22
ATOM     22  C   UNL     1       2.402   5.551   0.009  0.00  0.00    +0.000 C 
BRANCH  22  23
ATOM     23  C   UNL     1       3.791   6.192  -0.001  0.00  0.00    +0.000 C 
BRANCH  23  24
ATOM     24  N   UNL     1       3.655   7.655   0.008  0.00  0.00    +0.000 N 
ATOM     25  H   UNL     1       3.148   7.948   0.856  0.00  0.00    +0.000 HD
ATOM     26  H   UNL     1       3.132   7.957  -0.826  0.00  0.00    +0.000 HD
ATOM     27  H   UNL     1       4.590   8.087   0.002  0.00  0.00    +0.000 HD
ENDBRANCH  23  24
ENDBRANCH  22  23
ENDBRANCH  21  22
ENDBRANCH  20  21
ENDBRANCH  18  20
ENDBRANCH  17  18
ENDBRANCH  16  17
ENDBRANCH   4  16
TORSDOF 9
ENDMDL
MODEL        3
REMARK  Name = ZINC27418716
REMARK  10 active torsions:
REMARK  status: ('A' for Active; 'I' for Inactive)
REMARK    1  A    between atoms: C_2  and  C_16
REMARK    2  A    between atoms: N_8  and  C_9
REMARK    3  A    between atoms: C_9  and  O_10
REMARK    4  A    between atoms: O_10  and  C_11
REMARK    5  A    between atoms: C_11  and  C_12
REMARK    6  A    between atoms: C_11  and  C_14
REMARK    7  A    between atoms: C_12  and  O_13
REMARK    8  A    between atoms: C_14  and  O_15
REMARK    9  A    between atoms: C_16  and  C_17
REMARK   10  A    between atoms: C_16  and  N_19
REMARK                            x       y       z     vdW  Elec       q    Type
REMARK                         _______ _______ _______ _____ _____    ______ ____
ROOT
ATOM      1  C   UNL     1       0.510   1.280  -0.130  0.00  0.00    +0.000 A 
ATOM      2  C   UNL     1       0.723  -0.053  -0.166  0.00  0.00    +0.000 A 
ATOM      3  C   UNL     1       2.043  -0.543  -0.020  0.00  0.00    +0.000 A 
ATOM      4  O   UNL     1       2.260  -1.741  -0.049  0.00  0.00    +0.000 OA
ATOM      5  N   UNL     1       3.058   0.328   0.152  0.00  0.00    +0.000 N 
ATOM      6  C   UNL     1       2.816   1.652   0.184  0.00  0.00    +0.000 A 
ATOM      7  O   UNL     1       3.741   2.426   0.339  0.00  0.00    +0.000 OA
ATOM      8  N   UNL     1       1.567   2.131   0.046  0.00  0.00    +0.000 N 
ATOM      9  H   UNL     1       4.021  -0.021   0.259  0.00  0.00    +0.000 HD
ENDROOT
BRANCH   8  10
ATOM     10  C   UNL     1       1.335   3.577   0.085  0.00  0.00    +0.000 C 
BRANCH  10  11
ATOM     11  O   UNL     1       1.442   4.041   1.432  0.00  0.00    +0.000 OA
BRANCH  11  12
ATOM     12  C   UNL     1       0.308   3.731   2.245  0.00  0.00    +0.000 C 
BRANCH  12  13
ATOM     13  C   UNL     1       0.749   3.590   3.703  0.00  0.00    +0.000 C 
BRANCH  13  14
ATOM     14  O   UNL     1       1.224   4.850   4.181  0.00  0.00    +0.000 OA
ATOM     15  H   UNL     1       0.499   5.521   4.120  0.00  0.00    +0.000 HD
ENDBRANCH  13  14
ENDBRANCH  12  13
BRANCH  12  16
ATOM     16  C   UNL     1      -0.724   4.855   2.130  0.00  0.00    +0.000 C 
BRANCH  16  17
ATOM     17  O   UNL     1      -0.177   6.060   2.671  0.00  0.00    +0.000 OA
ATOM     18  H   UNL     1       0.638   6.309   2.167  0.00  0.00    +0.000 HD
ENDBRANCH  16  17
ENDBRANCH  12  16
ENDBRANCH  11  12
ENDBRANCH  10  11
ENDBRANCH   8  10
BRANCH   2  19
ATOM     19  C   UNL     1      -0.428  -1.006  -0.359  0.00  0.00    +0.000 C 
BRANCH  19  20
ATOM     20  N   UNL     1      -0.445  -1.980   0.734  0.00  0.00    +0.000 NA
ATOM     21  N   UNL     1      -1.283  -2.725   0.811  0.00  0.00    +0.000 NA
ATOM     22  N   UNL     1      -2.122  -3.470   0.887  0.00  0.00    +0.000 NA
ENDBRANCH  19  20
BRANCH  19  23
ATOM     23  C   UNL     1      -0.266  -1.738  -1.693  0.00  0.00    +0.000 C 
ATOM     24 CL   UNL     1      -1.644  -2.878  -1.925  0.00  0.00    +0.000 Cl
ENDBRANCH  19  23
ENDBRANCH   2  19
TORSDOF 10
ENDMDL
MODEL        4
REMARK  Name = ZINC12503222
REMARK  7 active torsions:
REMARK  status: ('A' for Active; 'I' for Inactive)
REMARK    1  A    between atoms: C_2  and  C_10
REMARK    2  A    between atoms: C_10  and  S_11
REMARK    3  A    between atoms: S_11  and  C_12
REMARK    4  A    between atoms: C_12  and  C_13
REMARK    5  A    between atoms: C_13  and  C_14
REMARK    6  A    between atoms: N_16  and  S_17
REMARK    7  A    between atoms: S_17  and  N_20
REMARK                            x       y       z     vdW  Elec       q    Type
REMARK                         _______ _______ _______ _____ _____    ______ ____
ROOT
ATOM      1  C   UNL     1       1.731   2.272  -0.002  0.00  0.00    +0.000 C 
ENDROOT
BRANCH   1   3
ATOM      2  C   UNL     1       1.923   4.459   1.172  0.00  0.00    +0.000 A 
ATOM      3  C   UNL     1       1.855   3.774   0.005  0.00  0.00    +0.000 A 
ATOM      4  N   UNL     1       1.905   4.453  -1.126  0.00  0.00    +0.000 NA
ATOM      5  C   UNL     1       2.008   5.768  -1.129  0.00  0.00    +0.000 A 
ATOM      6  S   UNL     1       2.055   6.135   0.567  0.00  0.00    +0.000 S 
ATOM      7  N   UNL     1       2.069   6.635  -2.212  0.00  0.00    +0.000 N 
ATOM      8  C   UNL     1       2.182   7.992  -2.002  0.00  0.00    +0.000 C 
ATOM      9  N   UNL     1       2.232   8.461  -0.788  0.00  0.00    +0.000 N 
ATOM     10  N   UNL     1       2.243   8.851  -3.075  0.00  0.00    +0.000 N 
ATOM     11  H   UNL     1       2.029   6.264  -3.172  0.00  0.00    +0.000 HD
ATOM     12  H   UNL     1       2.187   7.818   0.015  0.00  0.00    +0.000 HD
ATOM     13  H   UNL     1       2.317   9.476  -0.631  0.00  0.00    +0.000 HD
ATOM     14  H   UNL     1       2.203   8.480  -4.035  0.00  0.00    +0.000 HD
ATOM     15  H   UNL     1       2.327   9.865  -2.918  0.00  0.00    +0.000 HD
ENDBRANCH   1   3
BRANCH   1  16
ATOM     16  S   UNL     1      -0.022   1.810   0.012  0.00  0.00    +0.000 S 
BRANCH  16  17
ATOM     17  C   UNL     1       0.002  -0.004   0.002  0.00  0.00    +0.000 C 
BRANCH  17  18
ATOM     18  C   UNL     1      -1.433  -0.534   0.013  0.00  0.00    +0.000 C 
BRANCH  18  19
ATOM     19  C   UNL     1      -1.413  -2.041   0.005  0.00  0.00    +0.000 C 
ATOM     20  N   UNL     1      -0.284  -2.672  -0.010  0.00  0.00    +0.000 N 
ATOM     21  N   UNL     1      -2.590  -2.742   0.012  0.00  0.00    +0.000 NA
ATOM     22  H   UNL     1       0.601  -2.145  -0.015  0.00  0.00    +0.000 HD
ATOM     23  H   UNL     1      -0.270  -3.702  -0.015  0.00  0.00    +0.000 HD
BRANCH  21  24
ATOM     24  S   UNL     1      -2.567  -4.397   0.003  0.00  0.00    +0.000 S 
ATOM     25  O   UNL     1      -3.923  -4.822   0.041  0.00  0.00    +0.000 OA
ATOM     26  O   UNL     1      -1.676  -4.786  -1.033  0.00  0.00    +0.000 OA
BRANCH  24  27
ATOM     27  N   UNL     1      -1.879  -4.886   1.428  0.00  0.00    +0.000 NA
ATOM     28  H   UNL     1      -1.758  -5.889   1.624  0.00  0.00    +0.000 HD
ATOM     29  H   UNL     1      -1.571  -4.185   2.117  0.00  0.00    +0.000 HD
ENDBRANCH  24  27
ENDBRANCH  21  24
ENDBRANCH  18  19
ENDBRANCH  17  18
ENDBRANCH  16  17
ENDBRANCH   1  16
TORSDOF 7
ENDMDL
MODEL        5
REMARK  Name = ZINC18083628
REMARK  7 active torsions:
REMARK  status: ('A' for Active; 'I' for Inactive)
REMARK    1  A    between atoms: C_1  and  O_2
REMARK    2  A    between atoms: O_2  and  C_3
REMARK    3  A    between atoms: C_8  and  N_9
REMARK    4  A    between atoms: C_15  and  C_20
REMARK    5  A    between atoms: C_20  and  C_21
REMARK    6  A    between atoms: C_21  and  O_23
REMARK    7  A    between atoms: O_23  and  C_24
REMARK                            x       y       z     vdW  Elec       q    Type
REMARK                         _______ _______ _______ _____ _____    ______ ____
ROOT
ATOM      1  N   UNL     1       1.322   3.275   0.501  0.00  0.00    +0.000 N 
ATOM      2  C   UNL     1       0.269   4.045   0.369  0.00  0.00    +0.000 C 
ATOM      3  N   UNL     1       0.263   5.302   0.922  0.00  0.00    +0.000 N 
ATOM      4  N   UNL     1      -0.833   3.591  -0.325  0.00  0.00    +0.000 N 
ATOM      5  C   UNL     1      -1.880   4.443  -0.584  0.00  0.00    +0.000 A 
ATOM      6  N   UNL     1      -1.666   5.785  -0.575  0.00  0.00    +0.000 NA
ATOM      7  C   UNL     1      -2.691   6.649  -0.830  0.00  0.00    +0.000 A 
ATOM      8  C   UNL     1      -3.921   6.157  -1.091  0.00  0.00    +0.000 A 
ATOM      9  C   UNL     1      -4.111   4.751  -1.092  0.00  0.00    +0.000 A 
ATOM     10  O   UNL     1      -5.213   4.280  -1.325  0.00  0.00    +0.000 OA
ATOM     11  N   UNL     1      -3.070   3.944  -0.841  0.00  0.00    +0.000 NA
ATOM     12  H   UNL     1       2.109   3.576   1.094  0.00  0.00    +0.000 HD
ATOM     13  H   UNL     1       1.086   5.640   1.440  0.00  0.00    +0.000 HD
ATOM     14  H   UNL     1      -0.565   5.906   0.818  0.00  0.00    +0.000 HD
ATOM     15  H   UNL     1      -0.871   2.614  -0.649  0.00  0.00    +0.000 HD
ENDROOT
BRANCH   1  21
ATOM     16  C   UNL     1       1.741   0.910   0.546  0.00  0.00    +0.000 A 
ATOM     17  C   UNL     1       1.793  -0.302  -0.119  0.00  0.00    +0.000 A 
ATOM     18  C   UNL     1       1.488  -0.367  -1.467  0.00  0.00    +0.000 A 
ATOM     19  C   UNL     1       1.128   0.775  -2.158  0.00  0.00    +0.000 A 
ATOM     20  C   UNL     1       1.071   1.992  -1.508  0.00  0.00    +0.000 A 
ATOM     21  C   UNL     1       1.377   2.070  -0.149  0.00  0.00    +0.000 A 
BRANCH  16  23
ATOM     22  C   UNL     1       2.403  -0.248   2.515  0.00  0.00    +0.000 C 
ATOM     23  O   UNL     1       2.041   0.976   1.871  0.00  0.00    +0.000 OA
ENDBRANCH  16  23
ENDBRANCH   1  21
BRANCH   7  24
ATOM     24  C   UNL     1      -2.453   8.137  -0.820  0.00  0.00    +0.000 C 
BRANCH  24  25
ATOM     25  C   UNL     1      -2.183   8.612  -2.225  0.00  0.00    +0.000 C 
ATOM     26  O   UNL     1      -2.185   7.823  -3.140  0.00  0.00    +0.000 OA
BRANCH  25  27
ATOM     27  O   UNL     1      -1.942   9.911  -2.459  0.00  0.00    +0.000 OA
ATOM     28  C   UNL     1      -1.691  10.297  -3.837  0.00  0.00    +0.000 C 
ENDBRANCH  25  27
ENDBRANCH  24  25
ENDBRANCH   7  24
TORSDOF 5
ENDMDL
MODEL        6
REMARK  Name = ZINC21981399
REMARK  11 active torsions:
REMARK  status: ('A' for Active; 'I' for Inactive)
REMARK    1  A    between atoms: C_1  and  C_2
REMARK    2  A    between atoms: C_2  and  C_3
REMARK    3  A    between atoms: C_2  and  C_4
REMARK    4  A    between atoms: C_4  and  C_5
REMARK    5  A    between atoms: C_4  and  N_23
REMARK    6  A    between atoms: C_5  and  O_7
REMARK    7  A    between atoms: O_7  and  C_8
REMARK    8  A    between atoms: C_8  and  C_9
REMARK    9  A    between atoms: C_9  and  O_10
REMARK   10  A    between atoms: O_10  and  C_11
REMARK   11  A    between atoms: C_11  and  N_12
REMARK                            x       y       z     vdW  Elec       q    Type
REMARK                         _______ _______ _______ _____ _____    ______ ____
ROOT
ATOM      1  C   UNL     1       2.863   0.799  -2.066  0.00  0.00    +0.000 C 
ENDROOT
BRANCH   1   2
ATOM      2  N   UNL     1       1.898   0.711  -0.968  0.00  0.00    +0.000 N 
ATOM      3  C   UNL     1       1.114  -0.374  -0.586  0.00  0.00    +0.000 C 
ATOM      4  N   UNL     1       0.002  -0.004   0.002  0.00  0.00    +0.000 NA
ATOM      5  C   UNL     1      -0.018   1.445   0.010  0.00  0.00    +0.000 C 
ATOM      6  C   UNL     1       1.520   1.738  -0.003  0.00  0.00    +0.000 C 
ATOM      7  N   UNL     1       1.642   3.141  -0.326  0.00  0.00    +0.000 NA
ATOM      8  C   UNL     1       0.848   3.948   0.353  0.00  0.00    +0.000 C 
ATOM      9  N   UNL     1      -0.019   3.457   1.317  0.00  0.00    +0.000 N 
ATOM     10  C   UNL     1      -0.547   2.199   1.181  0.00  0.00    +0.000 C 
ATOM     11  O   UNL     1      -1.371   1.742   1.944  0.00  0.00    +0.000 OA
ATOM     12  N   UNL     1       0.881   5.299   0.100  0.00  0.00    +0.000 N 
ATOM     13  H   UNL     1      -0.266   4.035   2.132  0.00  0.00    +0.000 HD
ATOM     14  H   UNL     1       1.520   5.680  -0.613  0.00  0.00    +0.000 HD
ATOM     15  H   UNL     1       0.263   5.933   0.627  0.00  0.00    +0.000 HD
ENDBRANCH   1   2
BRANCH   1  16
ATOM     16  O   UNL     1       2.164   0.899  -3.308  0.00  0.00    +0.000 OA
BRANCH  16  17
ATOM     17  C   UNL     1       1.681   2.212  -3.600  0.00  0.00    +0.000 C 
BRANCH  17  18
ATOM     18  C   UNL     1       0.953   2.200  -4.946  0.00  0.00    +0.000 C 
BRANCH  18  19
ATOM     19  O   UNL     1      -0.233   1.368  -4.847  0.00  0.00    +0.000 OA
BRANCH  19  20
ATOM     20  C   UNL     1      -0.989   1.251  -5.950  0.00  0.00    +0.000 C 
ATOM     21  O   UNL     1      -0.671   1.825  -6.964  0.00  0.00    +0.000 OA
BRANCH  20  22
ATOM     22  C   UNL     1      -2.235   0.404  -5.923  0.00  0.00    +0.000 C 
BRANCH  22  23
ATOM     23  N   UNL     1      -2.612   0.044  -7.296  0.00  0.00    +0.000 N 
ATOM     24  H   UNL     1      -2.791   0.900  -7.840  0.00  0.00    +0.000 HD
ATOM     25  H   UNL     1      -3.463  -0.536  -7.279  0.00  0.00    +0.000 HD
ATOM     26  H   UNL     1      -1.846  -0.487  -7.735  0.00  0.00    +0.000 HD
ENDBRANCH  22  23
BRANCH  22  28
ATOM     27  C   UNL     1      -4.639   0.333  -5.245  0.00  0.00    +0.000 C 
ATOM     28  C   UNL     1      -3.374   1.192  -5.272  0.00  0.00    +0.000 C 
ATOM     29  C   UNL     1      -2.981   1.568  -3.842  0.00  0.00    +0.000 C 
ENDBRANCH  22  28
ENDBRANCH  20  22
ENDBRANCH  19  20
ENDBRANCH  18  19
ENDBRANCH  17  18
ENDBRANCH  16  17
ENDBRANCH   1  16
TORSDOF 9
ENDMDL
MODEL        7
REMARK  Name = ZINC21991926
REMARK  9 active torsions:
REMARK  status: ('A' for Active; 'I' for Inactive)
REMARK    1  A    between atoms: C_1  and  C_2
REMARK    2  A    between atoms: C_5  and  S_8
REMARK    3  A    between atoms: S_8  and  N_11
REMARK    4  A    between atoms: N_14  and  C_15
REMARK    5  A    between atoms: C_15  and  C_16
REMARK    6  A    between atoms: C_16  and  C_17
REMARK    7  A    between atoms: C_17  and  C_18
REMARK    8  A    between atoms: C_18  and  C_19
REMARK    9  A    between atoms: C_18  and  N_22
REMARK                            x       y       z     vdW  Elec       q    Type
REMARK                         _______ _______ _______ _____ _____    ______ ____
ROOT
ATOM      1  N   UNK     1      -0.897   1.885  -1.312  0.00  0.00    +0.000 NA
ATOM      2  C   UNK     1      -1.111   3.221  -1.558  0.00  0.00    +0.000 C 
ATOM      3  N   UNK     1      -0.620   4.119  -0.750  0.00  0.00    +0.000 N 
ATOM      4  N   UNK     1      -1.842   3.610  -2.655  0.00  0.00    +0.000 N 
ATOM      5  H   UNK     1      -0.072   3.827   0.072  0.00  0.00    +0.000 HD
ATOM      6  H   UNK     1      -0.780   5.120  -0.934  0.00  0.00    +0.000 HD
ATOM      7  H   UNK     1      -2.229   2.901  -3.294  0.00  0.00    +0.000 HD
ENDROOT
BRANCH   1   8
ATOM      8  S   UNK     1      -0.017   1.417   0.010  0.00  0.00    +0.000 S 
ATOM      9  O   UNK     1       0.002  -0.004   0.002  0.00  0.00    +0.000 OA
ATOM     10  O   UNK     1       1.172   2.195   0.003  0.00  0.00    +0.000 OA
BRANCH   8  15
ATOM     11  C   UNK     1      -3.131   3.072   4.906  0.00  0.00    +0.000 C 
ATOM     12  C   UNK     1      -2.353   2.659   3.683  0.00  0.00    +0.000 A 
ATOM     13  C   UNK     1      -2.559   1.412   3.121  0.00  0.00    +0.000 A 
ATOM     14  C   UNK     1      -1.846   1.033   2.000  0.00  0.00    +0.000 A 
ATOM     15  C   UNK     1      -0.927   1.900   1.439  0.00  0.00    +0.000 A 
ATOM     16  C   UNK     1      -0.717   3.145   2.004  0.00  0.00    +0.000 A 
ATOM     17  C   UNK     1      -1.434   3.526   3.123  0.00  0.00    +0.000 A 
ENDBRANCH   8  15
ENDBRANCH   1   8
BRANCH   4  18
ATOM     18  C   UNK     1      -2.069   5.034  -2.917  0.00  0.00    +0.000 C 
BRANCH  18  19
ATOM     19  C   UNK     1      -2.904   5.192  -4.189  0.00  0.00    +0.000 C 
BRANCH  19  20
ATOM     20  C   UNK     1      -3.142   6.678  -4.462  0.00  0.00    +0.000 C 
BRANCH  20  21
ATOM     21  C   UNK     1      -3.977   6.836  -5.734  0.00  0.00    +0.000 C 
BRANCH  21  22
ATOM     22  N   UNK     1      -3.210   6.346  -6.888  0.00  0.00    +0.000 N 
ATOM     23  H   UNK     1      -2.979   5.352  -6.750  0.00  0.00    +0.000 HD
ATOM     24  H   UNK     1      -2.340   6.891  -6.979  0.00  0.00    +0.000 HD
ATOM     25  H   UNK     1      -3.772   6.452  -7.744  0.00  0.00    +0.000 HD
ENDBRANCH  21  22
BRANCH  21  26
ATOM     26  C   UNK     1      -4.314   8.291  -5.936  0.00  0.00    +0.000 C 
ATOM     27  O   UNK     1      -3.679   8.955  -6.720  0.00  0.00    +0.000 OA
ATOM     28  O   UNK     1      -5.322   8.848  -5.246  0.00  0.00    +0.000 OA
ENDBRANCH  21  26
ENDBRANCH  20  21
ENDBRANCH  19  20
ENDBRANCH  18  19
ENDBRANCH   4  18
TORSDOF 8
ENDMDL
MODEL        8
REMARK  Name = ZINC02090323
REMARK  12 active torsions:
REMARK  status: ('A' for Active; 'I' for Inactive)
REMARK    1  A    between atoms: C_1  and  N_2
REMARK    2  A    between atoms: N_9  and  C_14
REMARK    3  A    between atoms: N_12  and  C_13
REMARK    4  A    between atoms: C_14  and  C_15
REMARK    5  A    between atoms: C_15  and  N_23
REMARK    6  A    between atoms: C_16  and  C_17
REMARK    7  A    between atoms: C_16  and  C_19
REMARK    8  A    between atoms: C_16  and  C_21
REMARK    9  A    between atoms: C_16  and  N_23
REMARK   10  A    between atoms: C_17  and  O_18
REMARK   11  A    between atoms: C_19  and  O_20
REMARK   12  A    between atoms: C_21  and  O_22
REMARK                            x       y       z     vdW  Elec       q    Type
REMARK                         _______ _______ _______ _____ _____    ______ ____
ROOT
ATOM      1  C   UNL     1       0.826  -0.509   1.188  0.00  0.00    +0.000 C 
ENDROOT
BRANCH   1  10
ATOM      2  C   UNL     1       3.845  -4.753  -0.873  0.00  0.00    +0.000 C 
ATOM      3  N   UNL     1       2.655  -4.993  -0.053  0.00  0.00    +0.000 N 
ATOM      4  C   UNL     1       2.152  -6.193   0.297  0.00  0.00    +0.000 A 
ATOM      5  N   UNL     1       1.082  -6.026   1.032  0.00  0.00    +0.000 NA
ATOM      6  C   UNL     1       0.843  -4.722   1.193  0.00  0.00    +0.000 A 
ATOM      7  C   UNL     1       1.836  -4.034   0.507  0.00  0.00    +0.000 A 
ATOM      8  C   UNL     1       1.823  -2.622   0.511  0.00  0.00    +0.000 A 
ATOM      9  O   UNL     1       2.683  -1.996  -0.082  0.00  0.00    +0.000 OA
ATOM     10  N   UNL     1       0.846  -1.974   1.180  0.00  0.00    +0.000 N 
ATOM     11  C   UNL     1      -0.106  -2.653   1.843  0.00  0.00    +0.000 A 
ATOM     12  O   UNL     1      -0.968  -2.036   2.439  0.00  0.00    +0.000 OA
ATOM     13  N   UNL     1      -0.132  -3.999   1.861  0.00  0.00    +0.000 N 
ATOM     14  C   UNL     1      -1.191  -4.700   2.591  0.00  0.00    +0.000 C 
ENDBRANCH   1  10
BRANCH   1  15
ATOM     15  C   UNL     1       0.002  -0.004   0.002  0.00  0.00    +0.000 C 
BRANCH  15  16
ATOM     16  N   UNL     1      -0.013   1.471   0.017  0.00  0.00    +0.000 N 
ATOM     17  H   UNL     1      -0.431   1.799   0.900  0.00  0.00    +0.000 HD
ATOM     18  H   UNL     1       0.952   1.824  -0.050  0.00  0.00    +0.000 HD
BRANCH  16  19
ATOM     19  C   UNL     1      -0.802   1.987  -1.117  0.00  0.00    +0.000 C 
BRANCH  19  20
ATOM     20  C   UNL     1      -0.799   3.516  -1.075  0.00  0.00    +0.000 C 
BRANCH  20  21
ATOM     21  O   UNL     1      -1.562   4.024  -2.172  0.00  0.00    +0.000 OA
ATOM     22  H   UNL     1      -2.493   3.694  -2.108  0.00  0.00    +0.000 HD
ENDBRANCH  20  21
ENDBRANCH  19  20
BRANCH  19  23
ATOM     23  C   UNL     1      -2.240   1.476  -1.018  0.00  0.00    +0.000 C 
BRANCH  23  24
ATOM     24  O   UNL     1      -2.820   1.920   0.211  0.00  0.00    +0.000 OA
ATOM     25  H   UNL     1      -2.819   2.909   0.239  0.00  0.00    +0.000 HD
ENDBRANCH  23  24
ENDBRANCH  19  23
BRANCH  19  26
ATOM     26  C   UNL     1      -0.182   1.512  -2.433  0.00  0.00    +0.000 C 
BRANCH  26  27
ATOM     27  O   UNL     1       1.196   1.889  -2.474  0.00  0.00    +0.000 OA
ATOM     28  H   UNL     1       1.676   1.473  -1.714  0.00  0.00    +0.000 HD
ENDBRANCH  26  27
ENDBRANCH  19  26
ENDBRANCH  16  19
ENDBRANCH  15  16
ENDBRANCH   1  15
TORSDOF 10
ENDMDL
MODEL        9
REMARK  Name = ZINC05163249
REMARK  8 active torsions:
REMARK  status: ('A' for Active; 'I' for Inactive)
REMARK    1  A    between atoms: C_3  and  C_6
REMARK    2  A    between atoms: C_6  and  N_7
REMARK    3  A    between atoms: C_9  and  N_19
REMARK    4  A    between atoms: C_10  and  N_18
REMARK    5  A    between atoms: N_14  and  C_15
REMARK    6  A    between atoms: C_15  and  C_16
REMARK    7  A    between atoms: C_16  and  C_17
REMARK    8  A    between atoms: C_17  and  N_22
REMARK                            x       y       z     vdW  Elec       q    Type
REMARK                         _______ _______ _______ _____ _____    ______ ____
ROOT
ATOM      1  N   UNL     1      -8.706   0.511  -3.969  0.00  0.00    +0.000 N 
ATOM      2  C   UNL     1      -7.434   1.059  -4.034  0.00  0.00    +0.000 A 
ATOM      3  C   UNL     1      -7.099   1.944  -5.054  0.00  0.00    +0.000 A 
ATOM      4  C   UNL     1      -5.811   2.470  -5.079  0.00  0.00    +0.000 A 
ATOM      5  N   UNL     1      -4.948   2.115  -4.129  0.00  0.00    +0.000 NA
ATOM      6  C   UNL     1      -5.301   1.266  -3.175  0.00  0.00    +0.000 A 
ATOM      7  N   UNL     1      -6.518   0.747  -3.121  0.00  0.00    +0.000 NA
ATOM      8  N   UNL     1      -4.375   0.918  -2.208  0.00  0.00    +0.000 N 
ATOM      9  H   UNL     1      -9.409   0.757  -4.679  0.00  0.00    +0.000 HD
ATOM     10  H   UNL     1      -4.636   0.262  -1.457  0.00  0.00    +0.000 HD
ENDROOT
BRANCH   4  11
ATOM     11  N   UNL     1      -5.432   3.355  -6.076  0.00  0.00    +0.000 N 
ATOM     12  H   UNL     1      -6.110   3.625  -6.803  0.00  0.00    +0.000 HD
ATOM     13  H   UNL     1      -4.478   3.742  -6.091  0.00  0.00    +0.000 HD
ENDBRANCH   4  11
BRANCH   3  14
ATOM     14  N   UNL     1      -8.089   2.318  -6.089  0.00  0.00    +0.000 N 
ATOM     15  O   UNL     1      -8.815   3.281  -5.918  0.00  0.00    +0.000 OA
ATOM     16  O   UNL     1      -8.178   1.662  -7.112  0.00  0.00    +0.000 OA
ENDBRANCH   3  14
BRANCH   8  17
ATOM     17  C   UNL     1      -3.023   1.482  -2.250  0.00  0.00    +0.000 C 
BRANCH  17  18
ATOM     18  C   UNL     1      -2.207   0.938  -1.076  0.00  0.00    +0.000 C 
BRANCH  18  19
ATOM     19  C   UNL     1      -0.795   1.527  -1.120  0.00  0.00    +0.000 C 
BRANCH  19  20
ATOM     20  N   UNL     1      -0.025   1.014   0.027  0.00  0.00    +0.000 N 
ATOM     21  H   UNL     1       0.031  -0.013  -0.023  0.00  0.00    +0.000 HD
ATOM     22  H   UNL     1      -0.484   1.291   0.906  0.00  0.00    +0.000 HD
ATOM     23  H   UNL     1       0.926   1.408   0.001  0.00  0.00    +0.000 HD
ENDBRANCH  19  20
ENDBRANCH  18  19
ENDBRANCH  17  18
ENDBRANCH   8  17
BRANCH   1  24
ATOM     24  C   UNL     1      -9.048  -0.419  -2.890  0.00  0.00    +0.000 C 
BRANCH  24  27
ATOM     25  C   UNL     1     -12.071  -1.178  -1.212  0.00  0.00    +0.000 C 
ATOM     26  C   UNL     1     -10.871  -1.853  -1.920  0.00  0.00    +0.000 C 
ATOM     27  C   UNL     1     -10.501  -0.873  -3.050  0.00  0.00    +0.000 C 
ATOM     28  O   UNL     1     -11.381   0.258  -2.941  0.00  0.00    +0.000 OA
ATOM     29  C   UNL     1     -12.589  -0.208  -2.304  0.00  0.00    +0.000 C 
ENDBRANCH  24  27
ENDBRANCH   1  24
TORSDOF 8
ENDMDL
MODEL       10
REMARK  Name = ZINC31460373
REMARK  15 active torsions:
REMARK  status: ('A' for Active; 'I' for Inactive)
REMARK    1  A    between atoms: C_1  and  C_2
REMARK    2  A    between atoms: C_2  and  C_3
REMARK    3  A    between atoms: C_2  and  O_23
REMARK    4  A    between atoms: C_3  and  C_4
REMARK    5  A    between atoms: C_3  and  C_6
REMARK    6  A    between atoms: C_3  and  O_22
REMARK    7  A    between atoms: C_6  and  C_7
REMARK    8  A    between atoms: C_6  and  O_9
REMARK    9  A    between atoms: O_9  and  C_10
REMARK   10  A    between atoms: C_11  and  N_20
REMARK   11  A    between atoms: C_12  and  O_19
REMARK   12  A    between atoms: C_13  and  O_18
REMARK   13  A    between atoms: C_14  and  C_16
REMARK   14  A    between atoms: C_16  and  O_17
REMARK   15  A    between atoms: N_20  and  C_21
REMARK                            x       y       z     vdW  Elec       q    Type
REMARK                         _______ _______ _______ _____ _____    ______ ____
ROOT
ATOM      1  C   UNL     1       2.248   2.200   3.349  0.00  0.00    +0.000 C 
ATOM      2  C   UNL     1       1.432   2.724   4.534  0.00  0.00    +0.000 C 
ATOM      3  C   UNL     1       0.634   3.954   4.091  0.00  0.00    +0.000 C 
ATOM      4  C   UNL     1       1.603   5.006   3.543  0.00  0.00    +0.000 C 
ATOM      5  C   UNL     1       2.413   4.395   2.396  0.00  0.00    +0.000 C 
ATOM      6  O   UNL     1       3.105   3.237   2.868  0.00  0.00    +0.000 OA
ENDROOT
BRANCH   2   7
ATOM      7  N   UNL     1       2.338   3.092   5.630  0.00  0.00    +0.000 N 
ATOM      8  C   UNL     1       2.669   1.923   6.455  0.00  0.00    +0.000 C 
ATOM      9  H   UNL     1       1.887   3.807   6.219  0.00  0.00    +0.000 HD
ATOM     10  H   UNL     1       3.205   3.485   5.236  0.00  0.00    +0.000 HD
ENDBRANCH   2   7
BRANCH   3  11
ATOM     11  O   UNL     1      -0.075   4.492   5.209  0.00  0.00    +0.000 OA
ATOM     12  H   UNL     1       0.569   4.753   5.915  0.00  0.00    +0.000 HD
ENDBRANCH   3  11
BRANCH   4  13
ATOM     13  O   UNL     1       2.489   5.428   4.582  0.00  0.00    +0.000 OA
ATOM     14  H   UNL     1       3.002   4.649   4.916  0.00  0.00    +0.000 HD
ENDBRANCH   4  13
BRANCH   1  15
ATOM     15  O   UNL     1       1.362   1.791   2.304  0.00  0.00    +0.000 OA
BRANCH  15  16
ATOM     16  C   UNL     1       1.939   0.861   1.385  0.00  0.00    +0.000 C 
BRANCH  16  17
ATOM     17  C   UNL     1       1.869  -0.528   1.966  0.00  0.00    +0.000 C 
ATOM     18  O   UNL     1       1.377  -0.703   3.054  0.00  0.00    +0.000 OA
ENDBRANCH  16  17
BRANCH  16  19
ATOM     19  C   UNL     1       1.165   0.902   0.066  0.00  0.00    +0.000 C 
BRANCH  19  20
ATOM     20  C   UNL     1       1.376   2.237  -0.599  0.00  0.00    +0.000 C 
ATOM     21  O   UNL     1       2.191   3.011  -0.156  0.00  0.00    +0.000 OA
ENDBRANCH  19  20
BRANCH  19  22
ATOM     22  O   UNL     1      -0.228   0.714   0.325  0.00  0.00    +0.000 OA
ATOM     23  H   UNL     1      -0.368  -0.164   0.762  0.00  0.00    +0.000 HD
ENDBRANCH  19  22
BRANCH  19  25
ATOM     24  C   UNL     1       0.983  -0.094  -2.218  0.00  0.00    +0.000 C 
ATOM     25  C   UNL     1       1.667  -0.212  -0.855  0.00  0.00    +0.000 C 
BRANCH  25  26
ATOM     26  O   UNL     1       3.082  -0.091  -1.020  0.00  0.00    +0.000 OA
ATOM     27  H   UNL     1       3.294   0.789  -1.420  0.00  0.00    +0.000 HD
ENDBRANCH  25  26
ENDBRANCH  19  25
ENDBRANCH  16  19
ENDBRANCH  15  16
ENDBRANCH   1  15
BRANCH   5  28
ATOM     28  C   UNL     1       3.425   5.421   1.883  0.00  0.00    +0.000 C 
BRANCH  28  29
ATOM     29  O   UNL     1       4.099   4.893   0.739  0.00  0.00    +0.000 OA
ATOM     30  H   UNL     1       3.440   4.697   0.027  0.00  0.00    +0.000 HD
ENDBRANCH  28  29
ENDBRANCH   5  28
TORSDOF 13
ENDMDL
MODEL       11
REMARK  Name = ZINC08627860
REMARK  14 active torsions:
REMARK  status: ('A' for Active; 'I' for Inactive)
REMARK    1  A    between atoms: C_1  and  C_2
REMARK    2  A    between atoms: C_5  and  S_8
REMARK    3  A    between atoms: S_8  and  N_10
REMARK    4  A    between atoms: N_10  and  N_11
REMARK    5  A    between atoms: C_12  and  C_13
REMARK    6  A    between atoms: C_13  and  C_14
REMARK    7  A    between atoms: C_13  and  O_22
REMARK    8  A    between atoms: C_14  and  C_15
REMARK    9  A    between atoms: C_14  and  O_21
REMARK   10  A    between atoms: C_15  and  C_16
REMARK   11  A    between atoms: C_15  and  O_20
REMARK   12  A    between atoms: C_16  and  C_17
REMARK   13  A    between atoms: C_16  and  O_19
REMARK   14  A    between atoms: C_17  and  O_18
REMARK                            x       y       z     vdW  Elec       q    Type
REMARK                         _______ _______ _______ _____ _____    ______ ____
ROOT
ATOM      1  C   UNL     1       0.170   1.271   4.998  0.00  0.00    +0.000 C 
ENDROOT
BRANCH   1   3
ATOM      2  N   UNL     1       0.052   2.574   7.030  0.00  0.00    +0.000 NA
ATOM      3  C   UNL     1      -0.535   1.757   6.238  0.00  0.00    +0.000 C 
BRANCH   2   4
ATOM      4  N   UNL     1      -0.604   3.026   8.183  0.00  0.00    +0.000 N 
ATOM      5  H   UNL     1      -1.558   2.701   8.393  0.00  0.00    +0.000 HD
BRANCH   4   6
ATOM      6  S   UNL     1       0.156   4.082   9.207  0.00  0.00    +0.000 S 
ATOM      7  O   UNL     1       0.177   5.306   8.485  0.00  0.00    +0.000 OA
BRANCH   6  12
ATOM      8  C   UNL     1      -3.890   5.037  13.581  0.00  0.00    +0.000 C 
ATOM      9  C   UNL     1      -2.879   4.799  12.489  0.00  0.00    +0.000 A 
ATOM     10  C   UNL     1      -1.966   3.767  12.605  0.00  0.00    +0.000 A 
ATOM     11  C   UNL     1      -1.039   3.548  11.603  0.00  0.00    +0.000 A 
ATOM     12  C   UNL     1      -1.026   4.361  10.484  0.00  0.00    +0.000 A 
ATOM     13  C   UNL     1      -1.935   5.396  10.371  0.00  0.00    +0.000 A 
ATOM     14  C   UNL     1      -2.864   5.612  11.371  0.00  0.00    +0.000 A 
ENDBRANCH   6  12
ENDBRANCH   4   6
ENDBRANCH   2   4
ENDBRANCH   1   3
BRANCH   1  15
ATOM     15  O   UNL     1       1.470   1.859   4.929  0.00  0.00    +0.000 OA
ATOM     16  H   UNL     1       1.994   1.600   5.728  0.00  0.00    +0.000 HD
ENDBRANCH   1  15
BRANCH   1  17
ATOM     17  C   UNL     1      -0.637   1.672   3.762  0.00  0.00    +0.000 C 
BRANCH  17  18
ATOM     18  O   UNL     1      -1.938   1.084   3.831  0.00  0.00    +0.000 OA
ATOM     19  H   UNL     1      -2.402   1.403   4.646  0.00  0.00    +0.000 HD
ENDBRANCH  17  18
BRANCH  17  20
ATOM     20  C   UNL     1       0.079   1.179   2.503  0.00  0.00    +0.000 C 
BRANCH  20  21
ATOM     21  O   UNL     1       1.379   1.766   2.434  0.00  0.00    +0.000 OA
ATOM     22  H   UNL     1       1.903   1.508   3.233  0.00  0.00    +0.000 HD
ENDBRANCH  20  21
BRANCH  20  23
ATOM     23  C   UNL     1      -0.729   1.579   1.267  0.00  0.00    +0.000 C 
BRANCH  23  24
ATOM     24  O   UNL     1      -2.030   0.991   1.336  0.00  0.00    +0.000 OA
ATOM     25  H   UNL     1      -2.494   1.310   2.150  0.00  0.00    +0.000 HD
ENDBRANCH  23  24
BRANCH  23  26
ATOM     26  C   UNL     1      -0.013   1.086   0.008  0.00  0.00    +0.000 C 
BRANCH  26  27
ATOM     27  O   UNL     1      -0.704   1.559  -1.150  0.00  0.00    +0.000 OA
ATOM     28  H   UNL     1      -0.718   2.549  -1.145  0.00  0.00    +0.000 HD
ENDBRANCH  26  27
ENDBRANCH  23  26
ENDBRANCH  20  23
ENDBRANCH  17  20
ENDBRANCH   1  17
TORSDOF 13
ENDMDL
MODEL       12
REMARK  Name = ZINC23083622
REMARK  11 active torsions:
REMARK  status: ('A' for Active; 'I' for Inactive)
REMARK    1  A    between atoms: C_1  and  C_2
REMARK    2  A    between atoms: C_2  and  C_3
REMARK    3  A    between atoms: C_3  and  N_4
REMARK    4  A    between atoms: C_5  and  N_24
REMARK    5  A    between atoms: C_6  and  C_12
REMARK    6  A    between atoms: C_12  and  C_14
REMARK    7  A    between atoms: C_14  and  N_15
REMARK    8  A    between atoms: N_15  and  C_16
REMARK    9  A    between atoms: C_16  and  C_17
REMARK   10  A    between atoms: N_21  and  C_22
REMARK   11  A    between atoms: C_22  and  C_23
REMARK                            x       y       z     vdW  Elec       q    Type
REMARK                         _______ _______ _______ _____ _____    ______ ____
ROOT
ATOM      1  N   UNL     1      -4.187  -6.136   1.365  0.00  0.00    +0.000 N 
ATOM      2  C   UNL     1      -3.052  -5.376   1.345  0.00  0.00    +0.000 A 
ATOM      3  C   UNL     1      -3.158  -3.992   1.564  0.00  0.00    +0.000 A 
ATOM      4  C   UNL     1      -4.497  -3.433   1.793  0.00  0.00    +0.000 A 
ATOM      5  O   UNL     1      -4.648  -2.240   1.984  0.00  0.00    +0.000 OA
ATOM      6  N   UNL     1      -5.555  -4.269   1.788  0.00  0.00    +0.000 N 
ATOM      7  C   UNL     1      -5.392  -5.586   1.578  0.00  0.00    +0.000 A 
ATOM      8  O   UNL     1      -6.372  -6.305   1.581  0.00  0.00    +0.000 OA
ATOM      9  H   UNL     1      -6.501  -3.893   1.946  0.00  0.00    +0.000 HD
ENDROOT
BRANCH   2  10
ATOM     10  N   UNL     1      -1.839  -5.950   1.122  0.00  0.00    +0.000 N 
ATOM     11  H   UNL     1      -1.778  -6.966   0.967  0.00  0.00    +0.000 HD
ATOM     12  H   UNL     1      -0.986  -5.373   1.107  0.00  0.00    +0.000 HD
ENDBRANCH   2  10
BRANCH   3  13
ATOM     13  C   UNL     1      -2.015  -3.164   1.559  0.00  0.00    +0.000 C 
ATOM     14  O   UNL     1      -0.932  -3.626   1.259  0.00  0.00    +0.000 OA
BRANCH  13  15
ATOM     15  C   UNL     1      -2.137  -1.708   1.925  0.00  0.00    +0.000 C 
BRANCH  15  16
ATOM     16  N   UNL     1      -0.816  -1.069   1.844  0.00  0.00    +0.000 NA
ATOM     17  H   UNL     1      -0.170  -1.542   2.491  0.00  0.00    +0.000 HD
BRANCH  16  18
ATOM     18  C   UNL     1      -0.897   0.355   2.195  0.00  0.00    +0.000 C 
BRANCH  18  19
ATOM     19  C   UNL     1       0.494   0.983   2.099  0.00  0.00    +0.000 C 
ATOM     20  C   UNL     1       0.482   2.414   2.693  0.00  0.00    +0.000 C 
ATOM     21  C   UNL     1       1.972   2.605   3.081  0.00  0.00    +0.000 C 
ATOM     22  C   UNL     1       2.394   1.196   3.547  0.00  0.00    +0.000 C 
ATOM     23  N   UNL     1       1.456   0.235   2.936  0.00  0.00    +0.000 N 
ATOM     24  H   UNL     1       0.949  -0.271   3.676  0.00  0.00    +0.000 HD
BRANCH  23  25
ATOM     25  C   UNL     1       2.175  -0.769   2.142  0.00  0.00    +0.000 C 
ATOM     26  C   UNL     1       3.236  -1.445   3.013  0.00  0.00    +0.000 C 
ENDBRANCH  23  25
ENDBRANCH  18  19
ENDBRANCH  16  18
ENDBRANCH  15  16
ENDBRANCH  13  15
ENDBRANCH   3  13
BRANCH   1  27
ATOM     27  C   UNL     1      -4.086  -7.581   1.145  0.00  0.00    +0.000 C 
BRANCH  27  29
ATOM     28  C   UNL     1      -4.103  -9.387  -0.582  0.00  0.00    +0.000 C 
ATOM     29  C   UNL     1      -4.208  -7.878  -0.351  0.00  0.00    +0.000 C 
ENDBRANCH  27  29
ENDBRANCH   1  27
TORSDOF 9
ENDMDL
MODEL       13
REMARK  Name = ZINC06008840
REMARK  11 active torsions:
REMARK  status: ('A' for Active; 'I' for Inactive)
REMARK    1  A    between atoms: C_1  and  C_2
REMARK    2  A    between atoms: C_4  and  O_21
REMARK    3  A    between atoms: C_7  and  C_13
REMARK    4  A    between atoms: C_13  and  N_22
REMARK    5  A    between atoms: CA_14  and  CB_15
REMARK    6  A    between atoms: CA_14  and  C_19
REMARK    7  A    between atoms: CA_14  and  N_22
REMARK    8  A    between atoms: CB_15  and  CG_16
REMARK    9  A    between atoms: CG_16  and  CD_17
REMARK   10  A    between atoms: CD_17  and  CE_18
REMARK   11  A    between atoms: CE_18  and  NZ_23
REMARK                            x       y       z     vdW  Elec       q    Type
REMARK                         _______ _______ _______ _____ _____    ______ ____
ROOT
ATOM      1  C   ACE A   0       3.700   2.205  -0.022  0.00  0.00    +0.000 C 
ENDROOT
BRANCH   1   8
ATOM      2  C   UNL     1      -2.551   1.371   0.021  0.00  0.00    +0.000 C 
ATOM      3  C   UNL     1      -1.237   2.108   0.019  0.00  0.00    +0.000 A 
ATOM      4  C   UNL     1      -1.201   3.489   0.031  0.00  0.00    +0.000 A 
ATOM      5  C   UNL     1       0.018   4.150   0.023  0.00  0.00    +0.000 A 
ATOM      6  O   UNL     1       1.174   3.477   0.009  0.00  0.00    +0.000 OA
ATOM      7  C   UNL     1       1.197   2.128   0.002  0.00  0.00    +0.000 A 
ATOM      8  C   UNL     1       2.398   1.446  -0.013  0.00  0.00    +0.000 A 
ATOM      9  C   UNL     1       2.401   0.048  -0.021  0.00  0.00    +0.000 A 
ATOM     10  O   UNL     1       3.559  -0.613  -0.035  0.00  0.00    +0.000 OA
ATOM     11  C   UNL     1       1.187  -0.666  -0.013  0.00  0.00    +0.000 A 
ATOM     12  C   UNL     1       0.002  -0.004   0.002  0.00  0.00    +0.000 A 
ATOM     13  C   UNL     1      -0.017   1.403   0.010  0.00  0.00    +0.000 A 
BRANCH   5  14
ATOM     14  O   UNL     1       0.038   5.497   0.029  0.00  0.00    +0.000 OA
ATOM     15  H   UNL     1      -0.478   5.761   0.832  0.00  0.00    +0.000 HD
ENDBRANCH   5  14
ENDBRANCH   1   8
BRANCH   1  16
ATOM     16  N   UNL     1       4.103   2.456  -1.418  0.00  0.00    +0.000 N 
ATOM     17  H1  UNL     1       4.218   1.557  -1.907  0.00  0.00    +0.000 HD
ATOM     18  H2  UNL     1       3.373   3.007  -1.892  0.00  0.00    +0.000 HD
BRANCH  16  19
ATOM     19  CA  UNL     1       5.377   3.199  -1.457  0.00  0.00    +0.000 C 
BRANCH  19  20
ATOM     20  C   UNL     1       6.528   2.231  -1.363  0.00  0.00    +0.000 C 
ATOM     21  O   UNL     1       6.314   1.046  -1.267  0.00  0.00    +0.000 OA
ATOM     22  OXT UNL     1       7.791   2.685  -1.387  0.00  0.00    +0.000 OA
ENDBRANCH  19  20
BRANCH  19  23
ATOM     23  CB  UNL     1       5.467   3.972  -2.775  0.00  0.00    +0.000 C 
BRANCH  23  24
ATOM     24  CG  UNL     1       4.373   5.041  -2.815  0.00  0.00    +0.000 C 
BRANCH  24  25
ATOM     25  CD  UNL     1       4.463   5.814  -4.132  0.00  0.00    +0.000 C 
BRANCH  25  26
ATOM     26  CE  UNL     1       3.368   6.883  -4.172  0.00  0.00    +0.000 C 
BRANCH  26  27
ATOM     27  NZ  UNL     1       3.478   7.635  -5.435  0.00  0.00    +0.000 N 
ATOM     28  HZ1 UNL     1       3.360   6.994  -6.232  0.00  0.00    +0.000 HD
ATOM     29  HZ2 UNL     1       4.401   8.088  -5.490  0.00  0.00    +0.000 HD
ATOM     30  HZ3 UNL     1       2.743   8.355  -5.466  0.00  0.00    +0.000 HD
ENDBRANCH  26  27
ENDBRANCH  25  26
ENDBRANCH  24  25
ENDBRANCH  23  24
ENDBRANCH  19  23
ENDBRANCH  16  19
ENDBRANCH   1  16
TORSDOF 10
ENDMDL
MODEL       14
REMARK  Name = ZINC26127025
REMARK  12 active torsions:
REMARK  status: ('A' for Active; 'I' for Inactive)
REMARK    1  A    between atoms: C_1  and  C_2
REMARK    2  A    between atoms: C_2  and  C_3
REMARK    3  A    between atoms: C_3  and  C_23
REMARK    4  A    between atoms: N_6  and  N_10
REMARK    5  A    between atoms: C_11  and  C_13
REMARK    6  A    between atoms: C_13  and  N_14
REMARK    7  A    between atoms: N_14  and  C_15
REMARK    8  A    between atoms: N_14  and  C_19
REMARK    9  A    between atoms: C_15  and  C_16
REMARK   10  A    between atoms: C_16  and  C_17
REMARK   11  A    between atoms: C_16  and  C_18
REMARK   12  A    between atoms: C_19  and  C_20
REMARK                            x       y       z     vdW  Elec       q    Type
REMARK                         _______ _______ _______ _____ _____    ______ ____
ROOT
ATOM      1  N   UNL     1      -1.641   6.617   2.097  0.00  0.00    +0.000 N 
ATOM      2  C   UNL     1      -1.743   5.359   1.623  0.00  0.00    +0.000 C 
ATOM      3  O   UNL     1      -1.241   4.439   2.232  0.00  0.00    +0.000 OA
ATOM      4  H   UNL     1      -2.067   7.399   1.580  0.00  0.00    +0.000 HD
ENDROOT
BRANCH   1   8
ATOM      5  C   UNL     1      -0.429   7.327   5.467  0.00  0.00    +0.000 C 
ATOM      6  C   UNL     1      -1.553   7.146   4.466  0.00  0.00    +0.000 C 
ATOM      7  O   UNL     1      -2.743   7.236   4.677  0.00  0.00    +0.000 OA
ATOM      8  N   UNL     1      -0.953   6.860   3.293  0.00  0.00    +0.000 N 
ATOM      9  C   UNL     1       0.379   6.844   3.411  0.00  0.00    +0.000 C 
ATOM     10  O   UNL     1       1.136   6.615   2.489  0.00  0.00    +0.000 OA
ATOM     11  N   UNL     1       0.787   7.110   4.665  0.00  0.00    +0.000 NA
ATOM     12  C   UNL     1      -0.450   8.745   6.041  0.00  0.00    +0.000 C 
BRANCH   5  14
ATOM     13  C   UNL     1       0.679   6.438   7.522  0.00  0.00    +0.000 C 
ATOM     14  C   UNL     1      -0.526   6.292   6.590  0.00  0.00    +0.000 C 
ENDBRANCH   5  14
ENDBRANCH   1   8
BRANCH   2  15
ATOM     15  C   UNL     1      -2.483   5.097   0.336  0.00  0.00    +0.000 C 
BRANCH  15  16
ATOM     16  N   UNL     1      -2.453   3.659   0.038  0.00  0.00    +0.000 NA
BRANCH  16  17
ATOM     17  C   UNL     1      -3.357   3.333  -1.073  0.00  0.00    +0.000 C 
BRANCH  17  18
ATOM     18  C   UNL     1      -3.689   1.840  -1.037  0.00  0.00    +0.000 C 
ATOM     19  C   UNL     1      -4.495   1.526   0.225  0.00  0.00    +0.000 C 
ATOM     20  C   UNL     1      -4.514   1.472  -2.273  0.00  0.00    +0.000 C 
ENDBRANCH  17  18
ENDBRANCH  16  17
BRANCH  16  21
ATOM     21  C   UNL     1      -1.084   3.209  -0.247  0.00  0.00    +0.000 C 
BRANCH  21  22
ATOM     22  C   UNL     1      -0.559   3.935  -1.459  0.00  0.00    +0.000 C 
ATOM     23  O   UNL     1      -1.273   4.710  -2.058  0.00  0.00    +0.000 OA
ATOM     24  N   UNL     1       0.705   3.724  -1.876  0.00  0.00    +0.000 N 
ATOM     25  H   UNL     1       1.312   3.065  -1.367  0.00  0.00    +0.000 HD
ATOM     26  H   UNL     1       1.064   4.220  -2.704  0.00  0.00    +0.000 HD
ENDBRANCH  21  22
ENDBRANCH  16  21
ENDBRANCH  15  16
ENDBRANCH   2  15
TORSDOF 8
ENDMDL
MODEL       15
REMARK  Name = ZINC10315609
REMARK  8 active torsions:
REMARK  status: ('A' for Active; 'I' for Inactive)
REMARK    1  A    between atoms: C_4  and  C_20
REMARK    2  A    between atoms: C_5  and  C_7
REMARK    3  A    between atoms: C_7  and  N_22
REMARK    4  A    between atoms: C_8  and  C_9
REMARK    5  A    between atoms: C_8  and  N_22
REMARK    6  A    between atoms: C_9  and  N_10
REMARK    7  A    between atoms: N_10  and  C_11
REMARK    8  A    between atoms: C_14  and  N_17
REMARK                            x       y       z     vdW  Elec       q    Type
REMARK                         _______ _______ _______ _____ _____    ______ ____
ROOT
ATOM      1  C   UNL     1       2.263  -4.298  -0.042  0.00  0.00    +0.000 C 
ENDROOT
BRANCH   1   2
ATOM      2  N   UNL     1       3.556  -5.006  -0.058  0.00  0.00    +0.000 N 
ATOM      3  H   UNL     1       4.099  -4.745   0.777  0.00  0.00    +0.000 HD
ATOM      4  H   UNL     1       4.083  -4.735  -0.901  0.00  0.00    +0.000 HD
BRANCH   2   5
ATOM      5  C   UNL     1       3.341  -6.466  -0.063  0.00  0.00    +0.000 C 
BRANCH   5  10
ATOM      6  C   UNL     1       6.409  -8.300  -1.280  0.00  0.00    +0.000 A 
ATOM      7  C   UNL     1       7.137  -8.446  -0.112  0.00  0.00    +0.000 A 
ATOM      8  C   UNL     1       6.643  -7.953   1.078  0.00  0.00    +0.000 A 
ATOM      9  C   UNL     1       5.406  -7.306   1.102  0.00  0.00    +0.000 A 
ATOM     10  C   UNL     1       4.677  -7.162  -0.080  0.00  0.00    +0.000 A 
ATOM     11  C   UNL     1       5.180  -7.665  -1.262  0.00  0.00    +0.000 A 
BRANCH   9  12
ATOM     12  C   UNL     1       4.870  -6.776   2.373  0.00  0.00    +0.000 C 
ATOM     13  O   UNL     1       3.793  -6.214   2.391  0.00  0.00    +0.000 OA
ATOM     14  O   UNL     1       5.576  -6.916   3.512  0.00  0.00    +0.000 OA
ENDBRANCH   9  12
ENDBRANCH   5  10
ENDBRANCH   2   5
ENDBRANCH   1   2
BRANCH   1  15
ATOM     15  C   UNL     1       2.518  -2.789  -0.037  0.00  0.00    +0.000 C 
BRANCH  15  16
ATOM     16  N   UNL     1       1.238  -2.077  -0.021  0.00  0.00    +0.000 N 
ATOM     17  H   UNL     1       0.354  -2.607  -0.015  0.00  0.00    +0.000 HD
BRANCH  16  18
ATOM     18  C   UNL     1       1.215  -0.681  -0.013  0.00  0.00    +0.000 A 
ATOM     19  C   UNL     1       0.002  -0.004   0.002  0.00  0.00    +0.000 A 
ATOM     20  C   UNL     1      -0.017   1.377   0.010  0.00  0.00    +0.000 A 
ATOM     21  C   UNL     1       1.171   2.086   0.002  0.00  0.00    +0.000 A 
ATOM     22  C   UNL     1       2.380   1.416  -0.013  0.00  0.00    +0.000 A 
ATOM     23  C   UNL     1       2.406   0.035  -0.021  0.00  0.00    +0.000 A 
BRANCH  21  24
ATOM     24  N   UNL     1       1.147   3.566   0.010  0.00  0.00    +0.000 N 
ATOM     25  O   UNL     1       0.082   4.158   0.023  0.00  0.00    +0.000 OA
ATOM     26  O   UNL     1       2.191   4.192   0.003  0.00  0.00    +0.000 OA
ENDBRANCH  21  24
ENDBRANCH  16  18
ENDBRANCH  15  16
ENDBRANCH   1  15
TORSDOF 8
ENDMDL
MODEL       16
REMARK  Name = ZINC04280027
REMARK  9 active torsions:
REMARK  status: ('A' for Active; 'I' for Inactive)
REMARK    1  A    between atoms: C_1  and  O_2
REMARK    2  A    between atoms: O_2  and  C_3
REMARK    3  A    between atoms: C_6  and  N_9
REMARK    4  A    between atoms: C_10  and  C_12
REMARK    5  A    between atoms: C_12  and  C_13
REMARK    6  A    between atoms: C_13  and  C_14
REMARK    7  A    between atoms: C_13  and  N_23
REMARK    8  A    between atoms: C_16  and  C_17
REMARK    9  A    between atoms: C_16  and  N_23
REMARK                            x       y       z     vdW  Elec       q    Type
REMARK                         _______ _______ _______ _____ _____    ______ ____
ROOT
ATOM      1  C   UNK A   1       2.417  -4.241  -0.258  0.00  0.00    +0.000 C 
ENDROOT
BRANCH   1   3
ATOM      2  N   UNK A   1       1.234  -2.083  -0.020  0.00  0.00    +0.000 N 
ATOM      3  C   UNK A   1       2.405  -2.739  -0.137  0.00  0.00    +0.000 C 
ATOM      4  O   UNK A   1       3.449  -2.122  -0.144  0.00  0.00    +0.000 OA
ATOM      5  H   UNK A   1       0.354  -2.610   0.068  0.00  0.00    +0.000 HD
BRANCH   2   9
ATOM      6  C   UNK A   1       1.173   2.087  -0.017  0.00  0.00    +0.000 A 
ATOM      7  C   UNK A   1       2.117   1.408  -0.773  0.00  0.00    +0.000 A 
ATOM      8  C   UNK A   1       2.138   0.027  -0.775  0.00  0.00    +0.000 A 
ATOM      9  C   UNK A   1       1.213  -0.681  -0.019  0.00  0.00    +0.000 A 
ATOM     10  C   UNK A   1       0.269  -0.001   0.738  0.00  0.00    +0.000 A 
ATOM     11  C   UNK A   1       0.249   1.379   0.739  0.00  0.00    +0.000 A 
BRANCH   6  13
ATOM     12  C   UNK A   1       0.154   4.080   0.786  0.00  0.00    +0.000 C 
ATOM     13  O   UNK A   1       1.153   3.446  -0.015  0.00  0.00    +0.000 OA
ENDBRANCH   6  13
ENDBRANCH   2   9
ENDBRANCH   1   3
BRANCH   1  14
ATOM     14  C   UNK A   1       3.862  -4.731  -0.376  0.00  0.00    +0.000 C 
BRANCH  14  15
ATOM     15  N   UNK A   1       4.578  -4.435   0.879  0.00  0.00    +0.000 N 
ATOM     16  H   UNK A   1       4.231  -3.546   1.268  0.00  0.00    +0.000 HD
ATOM     17  H   UNK A   1       4.406  -5.190   1.558  0.00  0.00    +0.000 HD
BRANCH  15  18
ATOM     18  C   UNK A   0       6.027  -4.325   0.628  0.00  0.00    +0.000 C 
BRANCH  18  19
ATOM     19  C   UNK A   0       6.742  -4.018   1.946  0.00  0.00    +0.000 C 
ATOM     20  C   UNK A   0       8.259  -3.900   1.704  0.00  0.00    +0.000 C 
ATOM     21  C   UNK A   0       8.610  -2.471   2.185  0.00  0.00    +0.000 C 
ATOM     22  C   UNK A   0       7.421  -2.143   3.123  0.00  0.00    +0.000 C 
ATOM     23  O   UNK A   0       6.292  -2.754   2.463  0.00  0.00    +0.000 OA
ENDBRANCH  18  19
ENDBRANCH  15  18
ENDBRANCH  14  15
BRANCH  14  24
ATOM     24  C   UNK A   1       3.870  -6.218  -0.620  0.00  0.00    +0.000 C 
ATOM     25  O   UNK A   1       4.419  -6.957   0.163  0.00  0.00    +0.000 OA
ATOM     26  O   UNK A   1       3.266  -6.723  -1.708  0.00  0.00    +0.000 OA
ENDBRANCH  14  24
ENDBRANCH   1  14
TORSDOF 8
ENDMDL
MODEL       17
REMARK  Name = ZINC22047784
REMARK  12 active torsions:
REMARK  status: ('A' for Active; 'I' for Inactive)
REMARK    1  A    between atoms: C_1  and  C_2
REMARK    2  A    between atoms: C_2  and  C_3
REMARK    3  A    between atoms: C_2  and  C_4
REMARK    4  A    between atoms: C_2  and  N_5
REMARK    5  A    between atoms: N_5  and  C_6
REMARK    6  A    between atoms: C_6  and  C_7
REMARK    7  A    between atoms: C_7  and  C_8
REMARK    8  A    between atoms: C_7  and  O_21
REMARK    9  A    between atoms: C_11  and  O_16
REMARK   10  A    between atoms: C_12  and  C_14
REMARK   11  A    between atoms: C_14  and  O_15
REMARK   12  A    between atoms: O_16  and  S_17
REMARK                            x       y       z     vdW  Elec       q    Type
REMARK                         _______ _______ _______ _____ _____    ______ ____
ROOT
ATOM      1  C   UNL     1       2.167  -0.141   3.251  0.00  0.00    +0.000 A 
ATOM      2  C   UNL     1       3.457   0.311   3.462  0.00  0.00    +0.000 A 
ATOM      3  C   UNL     1       4.047   1.168   2.554  0.00  0.00    +0.000 A 
ATOM      4  C   UNL     1       3.345   1.576   1.429  0.00  0.00    +0.000 A 
ATOM      5  C   UNL     1       2.052   1.121   1.219  0.00  0.00    +0.000 A 
ATOM      6  C   UNL     1       1.464   0.267   2.133  0.00  0.00    +0.000 A 
ENDROOT
BRANCH   1   7
ATOM      7  C   UNL     1       1.526  -1.077   4.243  0.00  0.00    +0.000 C 
BRANCH   7   8
ATOM      8  O   UNL     1       1.870  -0.673   5.569  0.00  0.00    +0.000 OA
ATOM      9  H   UNL     1       2.854  -0.701   5.679  0.00  0.00    +0.000 HD
ENDBRANCH   7   8
BRANCH   7  10
ATOM     10  C   UNL     1       2.026  -2.502   3.997  0.00  0.00    +0.000 C 
BRANCH  10  11
ATOM     11  N   UNL     1       1.312  -3.431   4.883  0.00  0.00    +0.000 N 
ATOM     12  H   UNL     1       0.301  -3.373   4.692  0.00  0.00    +0.000 HD
ATOM     13  H   UNL     1       1.480  -3.161   5.863  0.00  0.00    +0.000 HD
BRANCH  11  15
ATOM     14  C   UNL     1       3.265  -4.905   4.971  0.00  0.00    +0.000 C 
ATOM     15  C   UNL     1       1.767  -4.812   4.675  0.00  0.00    +0.000 C 
ATOM     16  C   UNL     1       1.003  -5.748   5.614  0.00  0.00    +0.000 C 
ATOM     17  C   UNL     1       1.507  -5.221   3.224  0.00  0.00    +0.000 C 
ENDBRANCH  11  15
ENDBRANCH  10  11
ENDBRANCH   7  10
ENDBRANCH   1   7
BRANCH   4  18
ATOM     18  O   UNL     1       3.924   2.420   0.535  0.00  0.00    +0.000 OA
BRANCH  18  19
ATOM     19  S   UNL     1       3.689   3.893   0.833  0.00  0.00    +0.000 S 
ATOM     20  O   UNL     1       4.172   4.617  -0.291  0.00  0.00    +0.000 OA
ATOM     21  O   UNL     1       2.350   4.006   1.294  0.00  0.00    +0.000 OA
ATOM     22  O   UNL     1       4.586   4.263   2.006  0.00  0.00    +0.000 OA
ENDBRANCH  18  19
ENDBRANCH   4  18
BRANCH   5  23
ATOM     23  C   UNL     1       1.286   1.562  -0.002  0.00  0.00    +0.000 C 
BRANCH  23  24
ATOM     24  O   UNL     1      -0.011   0.963   0.007  0.00  0.00    +0.000 OA
ATOM     25  H   UNL     1      -0.499   1.243   0.821  0.00  0.00    +0.000 HD
ENDBRANCH  23  24
ENDBRANCH   5  23
TORSDOF 9
ENDMDL
MODEL       18
REMARK  Name = ZINC03624639
REMARK  8 active torsions:
REMARK  status: ('A' for Active; 'I' for Inactive)
REMARK    1  A    between atoms: N_5  and  C_9
REMARK    2  A    between atoms: C_9  and  C_10
REMARK    3  A    between atoms: C_10  and  C_11
REMARK    4  A    between atoms: C_11  and  N_19
REMARK    5  A    between atoms: C_12  and  C_13
REMARK    6  A    between atoms: C_12  and  N_19
REMARK    7  A    between atoms: C_13  and  S_14
REMARK    8  A    between atoms: S_14  and  P_15
REMARK                            x       y       z     vdW  Elec       q    Type
REMARK                         _______ _______ _______ _____ _____    ______ ____
ROOT
ATOM      1  C   UNL     1      -0.753   1.593  -1.232  0.00  0.00    +0.000 C 
ENDROOT
BRANCH   1   2
ATOM      2  N   UNL     1      -0.056   1.113  -2.440  0.00  0.00    +0.000 N 
ATOM      3  H   UNL     1       0.911   1.466  -2.440  0.00  0.00    +0.000 HD
ATOM      4  H   UNL     1      -0.039   0.083  -2.439  0.00  0.00    +0.000 HD
BRANCH   2   5
ATOM      5  C   UNL     1      -0.749   1.587  -3.653  0.00  0.00    +0.000 C 
BRANCH   5   6
ATOM      6  C   UNL     1      -0.006   1.075  -4.888  0.00  0.00    +0.000 C 
BRANCH   6   7
ATOM      7  S   UNL     1      -0.850   1.654  -6.385  0.00  0.00    +0.000 S 
BRANCH   7   8
ATOM      8  P   UNL     1      -0.326   3.704  -6.510  0.00  0.00    +0.000 P 
ATOM      9  O   UNL     1       1.145   3.832  -6.615  0.00  0.00    +0.000 OA
ATOM     10  O   UNL     1      -1.016   4.356  -7.811  0.00  0.00    +0.000 OA
ATOM     11  O   UNL     1      -0.839   4.470  -5.190  0.00  0.00    +0.000 OA
ENDBRANCH   7   8
ENDBRANCH   6   7
ENDBRANCH   5   6
ENDBRANCH   2   5
ENDBRANCH   1   2
BRANCH   1  12
ATOM     12  C   UNL     1      -0.013   1.086   0.008  0.00  0.00    +0.000 C 
BRANCH  12  13
ATOM     13  C   UNL     1      -0.729   1.579   1.267  0.00  0.00    +0.000 C 
BRANCH  13  18
ATOM     14  C   UNL     1       0.838   0.508   5.051  0.00  0.00    +0.000 C 
ATOM     15  C   UNL     1       1.732   1.402   4.186  0.00  0.00    +0.000 C 
ATOM     16  C   UNL     1       0.958   1.850   2.974  0.00  0.00    +0.000 C 
ATOM     17  O   UNL     1       1.223   2.915   2.460  0.00  0.00    +0.000 OA
ATOM     18  N   UNL     1      -0.020   1.094   2.454  0.00  0.00    +0.000 N 
ATOM     19  C   UNL     1      -0.379  -0.087   2.980  0.00  0.00    +0.000 C 
ATOM     20  O   UNL     1      -1.281  -0.716   2.470  0.00  0.00    +0.000 OA
ATOM     21  C   UNL     1       0.323  -0.649   4.188  0.00  0.00    +0.000 C 
ENDBRANCH  13  18
ENDBRANCH  12  13
ENDBRANCH   1  12
TORSDOF 8
ENDMDL
MODEL       19
REMARK  Name = ZINC27646493
REMARK  9 active torsions:
REMARK  status: ('A' for Active; 'I' for Inactive)
REMARK    1  A    between atoms: C_4  and  C_6
REMARK    2  A    between atoms: C_6  and  C_7
REMARK    3  A    between atoms: C_7  and  C_8
REMARK    4  A    between atoms: C_8  and  C_9
REMARK    5  A    between atoms: C_9  and  C_10
REMARK    6  A    between atoms: N_12  and  N_13
REMARK    7  A    between atoms: C_14  and  C_16
REMARK    8  A    between atoms: C_16  and  O_17
REMARK    9  A    between atoms: O_17  and  N_18
REMARK                            x       y       z     vdW  Elec       q    Type
REMARK                         _______ _______ _______ _____ _____    ______ ____
ROOT
ATOM      1  C   UNL     1      -0.753   1.593  -1.232  0.00  0.00    +0.000 C 
ENDROOT
BRANCH   1   2
ATOM      2  C   UNL     1      -0.037   1.099  -2.490  0.00  0.00    +0.000 C 
BRANCH   2   3
ATOM      3  C   UNL     1      -0.765   1.598  -3.711  0.00  0.00    +0.000 C 
ATOM      4  O   UNL     1      -1.760   2.282  -3.587  0.00  0.00    +0.000 OA
ATOM      5  N   UNL     1      -0.312   1.286  -4.941  0.00  0.00    +0.000 N 
ATOM      6  H   UNL     1       0.532   0.706  -5.047  0.00  0.00    +0.000 HD
BRANCH   5   7
ATOM      7  N   UNL     1      -0.990   1.750  -6.076  0.00  0.00    +0.000 N 
ATOM      8  C   UNL     1      -0.537   1.437  -7.307  0.00  0.00    +0.000 C 
ATOM      9  O   UNL     1       0.458   0.754  -7.431  0.00  0.00    +0.000 OA
ATOM     10  H   UNL     1      -1.834   2.330  -5.971  0.00  0.00    +0.000 HD
BRANCH   8  11
ATOM     11  C   UNL     1      -1.266   1.936  -8.527  0.00  0.00    +0.000 C 
BRANCH  11  12
ATOM     12  O   UNL     1      -0.597   1.476  -9.703  0.00  0.00    +0.000 OA
BRANCH  12  13
ATOM     13  N   UNL     1      -1.225   1.906 -10.953  0.00  0.00    +0.000 NA
ATOM     14  H   UNL     1      -1.248   2.935 -10.950  0.00  0.00    +0.000 HD
ATOM     15  H   UNL     1      -2.195   1.558 -10.948  0.00  0.00    +0.000 HD
ENDBRANCH  12  13
ENDBRANCH  11  12
ENDBRANCH   8  11
ENDBRANCH   5   7
ENDBRANCH   2   3
ENDBRANCH   1   2
BRANCH   1  16
ATOM     16  C   UNL     1      -0.013   1.086   0.008  0.00  0.00    +0.000 C 
BRANCH  16  17
ATOM     17  C   UNL     1      -0.729   1.579   1.267  0.00  0.00    +0.000 C 
BRANCH  17  21
ATOM     18  C   UNL     1       1.494   2.143   4.655  0.00  0.00    +0.000 C 
ATOM     19  C   UNL     1       0.310   1.253   4.937  0.00  0.00    +0.000 C 
ATOM     20  C   UNL     1      -0.732   1.434   3.790  0.00  0.00    +0.000 C 
ATOM     21  C   UNL     1       0.011   1.072   2.506  0.00  0.00    +0.000 C 
ATOM     22  S   UNL     1       1.573   2.029   2.806  0.00  0.00    +0.000 S 
ATOM     23  N   UNL     1      -1.786   0.606   4.331  0.00  0.00    +0.000 N 
ATOM     24  C   UNL     1      -1.726   0.749   5.676  0.00  0.00    +0.000 C 
ATOM     25  O   UNL     1      -2.611   0.409   6.436  0.00  0.00    +0.000 OA
ATOM     26  N   UNL     1      -0.544   1.305   6.086  0.00  0.00    +0.000 N 
ATOM     27  H   UNL     1      -2.450   0.024   3.800  0.00  0.00    +0.000 HD
ATOM     28  H   UNL     1      -0.318   1.679   7.019  0.00  0.00    +0.000 HD
ENDBRANCH  17  21
ENDBRANCH  16  17
ENDBRANCH   1  16
TORSDOF 9
ENDMDL
MODEL       20
REMARK  Name = ZINC16046085
REMARK  10 active torsions:
REMARK  status: ('A' for Active; 'I' for Inactive)
REMARK    1  A    between atoms: C_1  and  C_2
REMARK    2  A    between atoms: C_2  and  O_3
REMARK    3  A    between atoms: O_3  and  C_4
REMARK    4  A    between atoms: C_4  and  C_5
REMARK    5  A    between atoms: C_5  and  C_6
REMARK    6  A    between atoms: C_6  and  N_7
REMARK    7  A    between atoms: C_11  and  C_13
REMARK    8  A    between atoms: C_13  and  S_14
REMARK    9  A    between atoms: S_14  and  C_15
REMARK   10  A    between atoms: C_19  and  O_21
REMARK                            x       y       z     vdW  Elec       q    Type
REMARK                         _______ _______ _______ _____ _____    ______ ____
ROOT
ATOM      1  N   UNL     1      -0.487   1.406  -4.765  0.00  0.00    +0.000 N 
ATOM      2  C   UNL     1      -0.940   1.719  -3.535  0.00  0.00    +0.000 C 
ATOM      3  O   UNL     1      -1.937   2.403  -3.410  0.00  0.00    +0.000 OA
ATOM      4  N   UNL     1      -0.288   1.272  -2.443  0.00  0.00    +0.000 N 
ATOM      5  C   UNL     1      -0.742   1.585  -1.213  0.00  0.00    +0.000 C 
ATOM      6  O   UNL     1      -1.736   2.268  -1.089  0.00  0.00    +0.000 OA
ATOM      7  H   UNL     1       0.357   0.826  -4.871  0.00  0.00    +0.000 HD
ATOM      8  H   UNL     1       0.556   0.692  -2.549  0.00  0.00    +0.000 HD
ENDROOT
BRANCH   1   9
ATOM      9  C   UNL     1      -1.196   1.891  -5.952  0.00  0.00    +0.000 C 
BRANCH   9  10
ATOM     10  C   UNL     1      -0.480   1.398  -7.211  0.00  0.00    +0.000 C 
BRANCH  10  11
ATOM     11  C   UNL     1      -1.220   1.905  -8.450  0.00  0.00    +0.000 C 
BRANCH  11  12
ATOM     12  O   UNL     1      -0.551   1.444  -9.626  0.00  0.00    +0.000 OA
BRANCH  12  14
ATOM     13  C   UNL     1      -0.368   1.316 -12.033  0.00  0.00    +0.000 C 
ATOM     14  C   UNL     1      -1.164   1.864 -10.846  0.00  0.00    +0.000 C 
ENDBRANCH  12  14
ENDBRANCH  11  12
ENDBRANCH  10  11
ENDBRANCH   9  10
ENDBRANCH   1   9
BRANCH   5  15
ATOM     15  C   UNL     1      -0.013   1.086   0.008  0.00  0.00    +0.000 C 
BRANCH  15  16
ATOM     16  S   UNL     1      -0.860   1.669   1.497  0.00  0.00    +0.000 S 
BRANCH  16  17
ATOM     17  C   UNL     1       0.174   0.961   2.735  0.00  0.00    +0.000 A 
ATOM     18  N   UNL     1      -0.114   1.167   4.012  0.00  0.00    +0.000 NA
ATOM     19  C   UNL     1       0.642   0.642   4.973  0.00  0.00    +0.000 A 
ATOM     20  C   UNL     1       1.753  -0.122   4.621  0.00  0.00    +0.000 A 
ATOM     21  C   UNL     1       2.025  -0.310   3.271  0.00  0.00    +0.000 A 
ATOM     22  N   UNL     1       1.223   0.240   2.365  0.00  0.00    +0.000 NA
ATOM     23  N   UNL     1       0.332   0.856   6.307  0.00  0.00    +0.000 N 
ATOM     24  H   UNL     1      -0.489   1.426   6.554  0.00  0.00    +0.000 HD
ATOM     25  H   UNL     1       0.920   0.449   7.048  0.00  0.00    +0.000 HD
BRANCH  21  26
ATOM     26  O   UNL     1       3.095  -1.046   2.884  0.00  0.00    +0.000 OA
ATOM     27  H   UNL     1       2.969  -1.925   3.323  0.00  0.00    +0.000 HD
ENDBRANCH  21  26
ENDBRANCH  16  17
ENDBRANCH  15  16
ENDBRANCH   5  15
TORSDOF 9
ENDMDL
MODEL       21
REMARK  Name = ZINC11642364
REMARK  8 active torsions:
REMARK  status: ('A' for Active; 'I' for Inactive)
REMARK    1  A    between atoms: C_1  and  C_2
REMARK    2  A    between atoms: C_8  and  C_10
REMARK    3  A    between atoms: C_10  and  S_11
REMARK    4  A    between atoms: S_11  and  C_12
REMARK    5  A    between atoms: C_12  and  C_13
REMARK    6  A    between atoms: C_13  and  O_15
REMARK    7  A    between atoms: O_15  and  C_16
REMARK    8  A    between atoms: C_16  and  C_17
REMARK                            x       y       z     vdW  Elec       q    Type
REMARK                         _______ _______ _______ _____ _____    ______ ____
ROOT
ATOM      1  C   UNL     1      -6.162  -2.302   0.014  0.00  0.00    +0.000 C 
ENDROOT
BRANCH   1   2
ATOM      2  C   UNL     1      -6.400  -3.791   0.007  0.00  0.00    +0.000 C 
ATOM      3  O   UNL     1      -5.462  -4.552  -0.001  0.00  0.00    +0.000 OA
BRANCH   2   4
ATOM      4  O   UNL     1      -7.654  -4.270   0.009  0.00  0.00    +0.000 OA
BRANCH   4   5
ATOM      5  C   UNL     1      -7.808  -5.714   0.002  0.00  0.00    +0.000 C 
BRANCH   5   6
ATOM      6  C   UNL     1      -9.274  -6.063   0.006  0.00  0.00    +0.000 C 
ATOM      7  O   UNL     1     -10.107  -5.182   0.014  0.00  0.00    +0.000 OA
ATOM      8  N   UNL     1      -9.659  -7.354   0.000  0.00  0.00    +0.000 N 
ATOM      9  C   UNL     1     -10.970  -7.666   0.004  0.00  0.00    +0.000 C 
ATOM     10  O   UNL     1     -11.805  -6.783   0.012  0.00  0.00    +0.000 OA
ATOM     11  N   UNL     1     -11.355  -8.958  -0.002  0.00  0.00    +0.000 N 
ATOM     12  H   UNL     1      -8.951  -8.102  -0.007  0.00  0.00    +0.000 HD
ATOM     13  H   UNL     1     -10.648  -9.706  -0.008  0.00  0.00    +0.000 HD
ATOM     14  H   UNL     1     -12.357  -9.196   0.001  0.00  0.00    +0.000 HD
ENDBRANCH   5   6
ENDBRANCH   4   5
ENDBRANCH   2   4
ENDBRANCH   1   2
BRANCH   1  15
ATOM     15  S   UNL     1      -4.378  -1.975   0.009  0.00  0.00    +0.000 S 
BRANCH  15  16
ATOM     16  C   UNL     1      -4.264  -0.165   0.018  0.00  0.00    +0.000 C 
BRANCH  16  24
ATOM     17  C   UNL     1       2.500   1.546  -0.014  0.00  0.00    +0.000 C 
ATOM     18  C   UNL     1       1.041   1.923   0.002  0.00  0.00    +0.000 A 
ATOM     19  C   UNL     1      -0.013   1.076   0.008  0.00  0.00    +0.000 A 
ATOM     20  C   UNL     1      -1.143   1.935   0.017  0.00  0.00    +0.000 A 
ATOM     21  N   UNL     1      -0.674   3.155   0.025  0.00  0.00    +0.000 NA
ATOM     22  O   UNL     1       0.535   3.165   0.014  0.00  0.00    +0.000 OA
ATOM     23  N   UNL     1      -2.485   1.554   0.020  0.00  0.00    +0.000 N 
ATOM     24  C   UNL     1      -2.814   0.247   0.015  0.00  0.00    +0.000 C 
ATOM     25  O   UNL     1      -1.944  -0.597   0.006  0.00  0.00    +0.000 OA
ATOM     26  H   UNL     1      -3.224   2.271   0.027  0.00  0.00    +0.000 HD
ENDBRANCH  16  24
ENDBRANCH  15  16
ENDBRANCH   1  15
TORSDOF 7
ENDMDL
MODEL       22
REMARK  Name = ZINC00547494
REMARK  9 active torsions:
REMARK  status: ('A' for Active; 'I' for Inactive)
REMARK    1  A    between atoms: C_1  and  O_2
REMARK    2  A    between atoms: O_2  and  C_3
REMARK    3  A    between atoms: C_5  and  C_14
REMARK    4  A    between atoms: C_8  and  O_9
REMARK    5  A    between atoms: O_9  and  C_10
REMARK    6  A    between atoms: C_10  and  C_11
REMARK    7  A    between atoms: N_15  and  N_16
REMARK    8  A    between atoms: C_17  and  C_19
REMARK    9  A    between atoms: C_19  and  N_20
REMARK                            x       y       z     vdW  Elec       q    Type
REMARK                         _______ _______ _______ _____ _____    ______ ____
ROOT
ATOM      1  C   UNL     1      -1.196  -0.715   0.010  0.00  0.00    +0.000 A 
ATOM      2  C   UNL     1      -1.179  -2.097   0.002  0.00  0.00    +0.000 A 
ATOM      3  C   UNL     1       0.041  -2.778  -0.013  0.00  0.00    +0.000 A 
ATOM      4  C   UNL     1       1.238  -2.058  -0.021  0.00  0.00    +0.000 A 
ATOM      5  C   UNL     1       1.214  -0.679  -0.019  0.00  0.00    +0.000 A 
ATOM      6  C   UNL     1       0.002  -0.004   0.002  0.00  0.00    +0.000 A 
ENDROOT
BRANCH   1   8
ATOM      7  C   UNL     1      -3.571  -0.842   0.032  0.00  0.00    +0.000 C 
ATOM      8  O   UNL     1      -2.382  -0.050   0.025  0.00  0.00    +0.000 OA
ENDBRANCH   1   8
BRANCH   3   9
ATOM      9  C   UNL     1       0.065  -4.252  -0.022  0.00  0.00    +0.000 C 
ATOM     10  N   UNL     1       1.199  -4.883  -0.036  0.00  0.00    +0.000 NA
BRANCH  10  11
ATOM     11  N   UNL     1       1.222  -6.284  -0.044  0.00  0.00    +0.000 N 
ATOM     12  C   UNL     1       2.400  -6.938  -0.059  0.00  0.00    +0.000 C 
ATOM     13  O   UNL     1       3.440  -6.315  -0.065  0.00  0.00    +0.000 OA
ATOM     14  H   UNL     1       0.338  -6.813  -0.039  0.00  0.00    +0.000 HD
BRANCH  12  15
ATOM     15  C   UNL     1       2.424  -8.445  -0.068  0.00  0.00    +0.000 C 
BRANCH  15  16
ATOM     16  N   UNL     1       3.813  -8.911  -0.084  0.00  0.00    +0.000 N 
ATOM     17  C   UNL     1       4.388  -9.757   0.788  0.00  0.00    +0.000 A 
ATOM     18  N   UNL     1       5.636  -9.921   0.430  0.00  0.00    +0.000 NA
ATOM     19  C   UNL     1       5.893  -9.199  -0.660  0.00  0.00    +0.000 A 
ATOM     20  N   UNL     1       4.806  -8.567  -1.015  0.00  0.00    +0.000 NA
ENDBRANCH  15  16
ENDBRANCH  12  15
ENDBRANCH  10  11
ENDBRANCH   3   9
BRANCH   6  21
ATOM     21  O   UNL     1      -0.016   1.355   0.009  0.00  0.00    +0.000 OA
BRANCH  21  22
ATOM     22  C   UNL     1       1.248   2.021   0.001  0.00  0.00    +0.000 C 
BRANCH  22  23
ATOM     23  C   UNL     1       1.030   3.512   0.011  0.00  0.00    +0.000 C 
ATOM     24  O   UNL     1      -0.097   3.961   0.024  0.00  0.00    +0.000 OA
ATOM     25  N   UNL     1       2.088   4.348   0.005  0.00  0.00    +0.000 N 
ATOM     26  H   UNL     1       3.045   3.967  -0.006  0.00  0.00    +0.000 HD
ATOM     27  H   UNL     1       1.939   5.367   0.012  0.00  0.00    +0.000 HD
ENDBRANCH  22  23
ENDBRANCH  21  22
ENDBRANCH   6  21
TORSDOF 8
ENDMDL
MODEL       23
REMARK  Name = ZINC05976180
REMARK  10 active torsions:
REMARK  status: ('A' for Active; 'I' for Inactive)
REMARK    1  A    between atoms: C_1  and  C_2
REMARK    2  A    between atoms: C_2  and  C_4
REMARK    3  A    between atoms: N_8  and  C_17
REMARK    4  A    between atoms: C_9  and  C_10
REMARK    5  A    between atoms: C_14  and  O_16
REMARK    6  A    between atoms: C_17  and  C_18
REMARK    7  A    between atoms: C_18  and  N_23
REMARK    8  A    between atoms: C_19  and  C_20
REMARK    9  A    between atoms: C_19  and  N_23
REMARK   10  A    between atoms: C_20  and  O_21
REMARK                            x       y       z     vdW  Elec       q    Type
REMARK                         _______ _______ _______ _____ _____    ______ ____
ROOT
ATOM      1  C   UNL     1       3.156   1.161   1.333  0.00  0.00    +0.000 C 
ATOM      2  C   UNL     1       4.351   1.772   1.125  0.00  0.00    +0.000 C 
ATOM      3  C   UNL     1       4.482   2.104  -0.310  0.00  0.00    +0.000 C 
ATOM      4  O   UNL     1       5.439   2.657  -0.813  0.00  0.00    +0.000 OA
ATOM      5  N   UNL     1       3.383   1.705  -0.976  0.00  0.00    +0.000 N 
ATOM      6  C   UNL     1       2.468   1.086  -0.010  0.00  0.00    +0.000 C 
ATOM      7  O   UNL     1       5.273   2.033   2.078  0.00  0.00    +0.000 OA
ENDROOT
BRANCH   6   8
ATOM      8  C   UNL     1       1.167   1.846   0.032  0.00  0.00    +0.000 A 
ATOM      9  C   UNL     1       1.175   3.224   0.150  0.00  0.00    +0.000 A 
ATOM     10  C   UNL     1      -0.016   3.923   0.188  0.00  0.00    +0.000 A 
ATOM     11  C   UNL     1      -1.219   3.247   0.108  0.00  0.00    +0.000 A 
ATOM     12  C   UNL     1      -1.229   1.866  -0.017  0.00  0.00    +0.000 A 
ATOM     13  C   UNL     1      -0.032   1.165  -0.049  0.00  0.00    +0.000 A 
BRANCH  12  14
ATOM     14  O   UNL     1      -2.410   1.199  -0.102  0.00  0.00    +0.000 OA
ATOM     15  H   UNL     1      -2.877   1.606  -0.875  0.00  0.00    +0.000 HD
ENDBRANCH  12  14
ENDBRANCH   6   8
BRANCH   1  17
ATOM     16  C   UNL     1       1.364  -0.093   2.606  0.00  0.00    +0.000 C 
ATOM     17  C   UNL     1       2.652   0.688   2.568  0.00  0.00    +0.000 C 
ATOM     18  O   UNL     1       3.257   0.911   3.596  0.00  0.00    +0.000 OA
ENDBRANCH   1  17
BRANCH   5  19
ATOM     19  C   UNL     1       3.142   1.860  -2.413  0.00  0.00    +0.000 C 
BRANCH  19  20
ATOM     20  C   UNL     1       2.445   3.197  -2.672  0.00  0.00    +0.000 C 
BRANCH  20  21
ATOM     21  N   UNL     1       2.207   3.345  -4.120  0.00  0.00    +0.000 N 
ATOM     22  H   UNL     1       3.108   3.316  -4.619  0.00  0.00    +0.000 HD
ATOM     23  H   UNL     1       1.614   2.570  -4.450  0.00  0.00    +0.000 HD
BRANCH  21  24
ATOM     24  C   UNL     1       1.535   4.628  -4.400  0.00  0.00    +0.000 C 
BRANCH  24  25
ATOM     25  C   UNL     1       1.301   4.753  -5.907  0.00  0.00    +0.000 C 
BRANCH  25  26
ATOM     26  O   UNL     1       0.386   3.742  -6.332  0.00  0.00    +0.000 OA
ATOM     27  H   UNL     1      -0.475   3.852  -5.855  0.00  0.00    +0.000 HD
ENDBRANCH  25  26
ENDBRANCH  24  25
ENDBRANCH  21  24
ENDBRANCH  20  21
ENDBRANCH  19  20
ENDBRANCH   5  19
TORSDOF 9
ENDMDL
MODEL       24
REMARK  Name = ZINC04809420
REMARK  4 active torsions:
REMARK  status: ('A' for Active; 'I' for Inactive)
REMARK    1  A    between atoms: C_3  and  S_12
REMARK    2  A    between atoms: C_6  and  N_7
REMARK    3  A    between atoms: S_12  and  N_15
REMARK    4  A    between atoms: N_15  and  C_16
REMARK                            x       y       z     vdW  Elec       q    Type
REMARK                         _______ _______ _______ _____ _____    ______ ____
ROOT
ATOM      1  C   UNL     1      -2.082   3.733  -0.218  0.00  0.00    +0.000 A 
ATOM      2  C   UNL     1      -3.234   4.494  -0.241  0.00  0.00    +0.000 A 
ATOM      3  C   UNL     1      -4.468   3.886  -0.101  0.00  0.00    +0.000 A 
ATOM      4  C   UNL     1      -4.553   2.515   0.058  0.00  0.00    +0.000 A 
ATOM      5  C   UNL     1      -3.405   1.748   0.076  0.00  0.00    +0.000 A 
ATOM      6  C   UNL     1      -2.164   2.355  -0.065  0.00  0.00    +0.000 A 
ENDROOT
BRANCH   6   7
ATOM      7  N   UNL     1      -0.999   1.581  -0.046  0.00  0.00    +0.000 N 
ATOM      8  C   UNL     1       0.126   2.015  -0.710  0.00  0.00    +0.000 C 
ATOM      9  N   UNL     1       1.308   1.313  -0.596  0.00  0.00    +0.000 N 
ATOM     10  C   UNL     1       1.332   0.108   0.076  0.00  0.00    +0.000 C 
ATOM     11  N   UNL     1       2.531  -0.521   0.314  0.00  0.00    +0.000 N 
ATOM     12  N   UNL     1       0.007   3.110  -1.445  0.00  0.00    +0.000 NA
ATOM     13  N   UNL     1       0.168  -0.389   0.464  0.00  0.00    +0.000 N 
ATOM     14  H   UNL     1      -0.983   0.686   0.464  0.00  0.00    +0.000 HD
ATOM     15  H   UNL     1       2.172   1.688  -1.012  0.00  0.00    +0.000 HD
ATOM     16  H   UNL     1       3.411  -0.094  -0.008  0.00  0.00    +0.000 HD
ATOM     17  H   UNL     1       2.549  -1.421   0.816  0.00  0.00    +0.000 HD
ATOM     18  H   UNL     1      -0.882   3.623  -1.526  0.00  0.00    +0.000 HD
ATOM     19  H   UNL     1      -0.723   0.093   0.279  0.00  0.00    +0.000 HD
ATOM     20  H   UNL     1       0.161  -1.287   0.967  0.00  0.00    +0.000 HD
ENDBRANCH   6   7
BRANCH   3  21
ATOM     21  S   UNL     1      -5.936   4.861  -0.123  0.00  0.00    +0.000 S 
ATOM     22  O   UNL     1      -5.621   6.053  -0.831  0.00  0.00    +0.000 OA
ATOM     23  O   UNL     1      -6.992   3.997  -0.520  0.00  0.00    +0.000 OA
BRANCH  21  24
ATOM     24  N   UNL     1      -6.251   5.308   1.440  0.00  0.00    +0.000 NA
BRANCH  24  25
ATOM     25  C   UNL     1      -5.372   6.141   2.113  0.00  0.00    +0.000 A 
ATOM     26  N   UNL     1      -4.242   6.672   1.687  0.00  0.00    +0.000 NA
ATOM     27  C   UNL     1      -3.519   7.456   2.465  0.00  0.00    +0.000 A 
ATOM     28  C   UNL     1      -3.958   7.699   3.723  0.00  0.00    +0.000 A 
ATOM     29  S   UNL     1      -5.471   6.749   3.736  0.00  0.00    +0.000 S 
ENDBRANCH  24  25
ENDBRANCH  21  24
ENDBRANCH   3  21
TORSDOF 4
ENDMDL
MODEL       25
REMARK  Name = ZINC19001641
REMARK  10 active torsions:
REMARK  status: ('A' for Active; 'I' for Inactive)
REMARK    1  A    between atoms: C_1  and  C_2
REMARK    2  A    between atoms: C_2  and  C_3
REMARK    3  A    between atoms: C_2  and  C_4
REMARK    4  A    between atoms: C_4  and  N_5
REMARK    5  A    between atoms: C_9  and  C_11
REMARK    6  A    between atoms: C_11  and  O_12
REMARK    7  A    between atoms: O_12  and  C_13
REMARK    8  A    between atoms: C_13  and  C_15
REMARK    9  A    between atoms: C_15  and  C_16
REMARK   10  A    between atoms: C_16  and  C_17
REMARK                            x       y       z     vdW  Elec       q    Type
REMARK                         _______ _______ _______ _____ _____    ______ ____
ROOT
ATOM      1  C   UNL     1      -2.319   5.563   4.008  0.00  0.00    +0.000 C 
ENDROOT
BRANCH   1   6
ATOM      2  N   UNL     1      -0.704   1.998   1.216  0.00  0.00    +0.000 N 
ATOM      3  C   UNL     1      -0.843   3.320   1.438  0.00  0.00    +0.000 C 
ATOM      4  O   UNL     1      -0.400   4.121   0.637  0.00  0.00    +0.000 OA
ATOM      5  N   UNL     1      -1.474   3.755   2.546  0.00  0.00    +0.000 N 
ATOM      6  C   UNL     1      -1.613   5.077   2.768  0.00  0.00    +0.000 C 
ATOM      7  O   UNL     1      -1.171   5.875   1.970  0.00  0.00    +0.000 OA
ATOM      8  H   UNL     1      -1.080   1.320   1.894  0.00  0.00    +0.000 HD
ATOM      9  H   UNL     1      -1.850   3.077   3.224  0.00  0.00    +0.000 HD
BRANCH   2  10
ATOM     10  C   UNL     1      -0.019   1.526   0.010  0.00  0.00    +0.000 C 
BRANCH  10  12
ATOM     11  C   UNL     1       0.606  -0.499  -1.314  0.00  0.00    +0.000 C 
ATOM     12  C   UNL     1       0.002  -0.004   0.002  0.00  0.00    +0.000 C 
ATOM     13  C   UNL     1       0.848  -0.509   1.173  0.00  0.00    +0.000 C 
ENDBRANCH  10  12
ENDBRANCH   2  10
ENDBRANCH   1   6
BRANCH   1  14
ATOM     14  O   UNL     1      -2.338   7.015   4.016  0.00  0.00    +0.000 OA
BRANCH  14  15
ATOM     15  C   UNL     1      -2.935   7.611   5.061  0.00  0.00    +0.000 C 
ATOM     16  O   UNL     1      -3.424   6.941   5.939  0.00  0.00    +0.000 OA
BRANCH  15  17
ATOM     17  C   UNL     1      -2.994   9.114   5.138  0.00  0.00    +0.000 C 
BRANCH  17  18
ATOM     18  C   UNL     1      -3.721   9.531   6.418  0.00  0.00    +0.000 C 
BRANCH  18  19
ATOM     19  C   UNL     1      -3.781  11.058   6.496  0.00  0.00    +0.000 C 
ATOM     20  C   UNL     1      -4.559  11.499   7.720  0.00  0.00    +0.000 C 
ATOM     21  O   UNL     1      -5.721  11.265   7.972  0.00  0.00    +0.000 OA
ATOM     22  N   UNL     1      -3.689  12.205   8.469  0.00  0.00    +0.000 N 
ATOM     23  C   UNL     1      -2.482  12.270   7.895  0.00  0.00    +0.000 C 
ATOM     24  O   UNL     1      -1.533  12.853   8.381  0.00  0.00    +0.000 OA
ATOM     25  N   UNL     1      -2.437  11.619   6.714  0.00  0.00    +0.000 NA
ATOM     26  H   UNL     1      -3.924  12.640   9.373  0.00  0.00    +0.000 HD
ENDBRANCH  18  19
ENDBRANCH  17  18
ENDBRANCH  15  17
ENDBRANCH  14  15
ENDBRANCH   1  14
TORSDOF 8
ENDMDL
MODEL       26
REMARK  Name = ZINC31220835
REMARK  10 active torsions:
REMARK  status: ('A' for Active; 'I' for Inactive)
REMARK    1  A    between atoms: C_1  and  C_2
REMARK    2  A    between atoms: C_2  and  S_3
REMARK    3  A    between atoms: S_3  and  N_6
REMARK    4  A    between atoms: N_6  and  C_7
REMARK    5  A    between atoms: C_7  and  C_8
REMARK    6  A    between atoms: C_8  and  N_9
REMARK    7  A    between atoms: C_10  and  C_12
REMARK    8  A    between atoms: C_12  and  C_13
REMARK    9  A    between atoms: C_13  and  C_14
REMARK   10  A    between atoms: C_15  and  C_22
REMARK                            x       y       z     vdW  Elec       q    Type
REMARK                         _______ _______ _______ _____ _____    ______ ____
ROOT
ATOM      1  N   UNL     1       1.139   2.192   0.003  0.00  0.00    +0.000 N 
ATOM      2  C   UNL     1      -0.018   1.503   0.010  0.00  0.00    +0.000 C 
ATOM      3  O   UNL     1      -1.077   2.095   0.018  0.00  0.00    +0.000 OA
ATOM      4  H   UNL     1       2.038   1.690  -0.008  0.00  0.00    +0.000 HD
ENDROOT
BRANCH   2   5
ATOM      5  C   UNL     1       0.002  -0.004   0.002  0.00  0.00    +0.000 C 
BRANCH   5   6
ATOM      6  C   UNL     1      -1.433  -0.534   0.013  0.00  0.00    +0.000 C 
BRANCH   6   7
ATOM      7  C   UNL     1      -1.413  -2.041   0.005  0.00  0.00    +0.000 A 
ATOM      8  C   UNL     1      -1.488  -2.732   1.162  0.00  0.00    +0.000 A 
ATOM      9  N   UNL     1      -1.473  -4.100   1.136  0.00  0.00    +0.000 N 
ATOM     10  C   UNL     1      -1.374  -4.762  -0.031  0.00  0.00    +0.000 A 
ATOM     11  O   UNL     1      -1.358  -5.978  -0.031  0.00  0.00    +0.000 OA
ATOM     12  N   UNL     1      -1.292  -4.098  -1.199  0.00  0.00    +0.000 N 
ATOM     13  C   UNL     1      -1.308  -2.750  -1.216  0.00  0.00    +0.000 A 
ATOM     14  O   UNL     1      -1.234  -2.148  -2.272  0.00  0.00    +0.000 OA
ATOM     15  C   UNL     1      -1.594  -2.001   2.475  0.00  0.00    +0.000 C 
ATOM     16  H   UNL     1      -1.538  -4.628   2.018  0.00  0.00    +0.000 HD
ATOM     17  H   UNL     1      -1.217  -4.621  -2.083  0.00  0.00    +0.000 HD
ENDBRANCH   6   7
ENDBRANCH   5   6
ENDBRANCH   2   5
BRANCH   1  18
ATOM     18  C   UNL     1       1.120   3.657   0.011  0.00  0.00    +0.000 C 
BRANCH  18  19
ATOM     19  C   UNL     1       2.555   4.187   0.000  0.00  0.00    +0.000 C 
BRANCH  19  20
ATOM     20  N   UNL     1       2.535   5.652   0.008  0.00  0.00    +0.000 NA
ATOM     21  H   UNL     1       1.665   6.156  -0.212  0.00  0.00    +0.000 HD
BRANCH  20  22
ATOM     22  S   UNL     1       3.913   6.497   0.371  0.00  0.00    +0.000 S 
ATOM     23  O   UNL     1       3.527   7.863   0.309  0.00  0.00    +0.000 OA
ATOM     24  O   UNL     1       4.376   5.929   1.588  0.00  0.00    +0.000 OA
BRANCH  22  26
ATOM     25  C   UNL     1       6.386   6.846  -0.744  0.00  0.00    +0.000 C 
ATOM     26  C   UNL     1       5.064   6.111  -0.977  0.00  0.00    +0.000 C 
ENDBRANCH  22  26
ENDBRANCH  20  22
ENDBRANCH  19  20
ENDBRANCH  18  19
ENDBRANCH   1  18
TORSDOF 8
ENDMDL
MODEL       27
REMARK  Name = ZINC26764321
REMARK  10 active torsions:
REMARK  status: ('A' for Active; 'I' for Inactive)
REMARK    1  A    between atoms: C_1  and  C_2
REMARK    2  A    between atoms: C_5  and  S_11
REMARK    3  A    between atoms: C_7  and  C_8
REMARK    4  A    between atoms: S_11  and  N_14
REMARK    5  A    between atoms: N_14  and  C_15
REMARK    6  A    between atoms: C_15  and  C_16
REMARK    7  A    between atoms: N_18  and  C_19
REMARK    8  A    between atoms: C_19  and  C_20
REMARK    9  A    between atoms: C_20  and  O_21
REMARK   10  A    between atoms: O_21  and  C_22
REMARK                            x       y       z     vdW  Elec       q    Type
REMARK                         _______ _______ _______ _____ _____    ______ ____
ROOT
ATOM      1  S   UNL     1      -1.601   1.713  -0.011  0.00  0.00    +0.000 S 
ATOM      2  O   UNL     1      -2.796   0.946   0.024  0.00  0.00    +0.000 OA
ATOM      3  O   UNL     1      -1.255   2.631   1.017  0.00  0.00    +0.000 OA
ENDROOT
BRANCH   1   8
ATOM      4  C   UNL     1      -1.700   4.883  -5.156  0.00  0.00    +0.000 C 
ATOM      5  C   UNL     1      -1.678   4.090  -3.874  0.00  0.00    +0.000 A 
ATOM      6  C   UNL     1      -0.928   4.529  -2.802  0.00  0.00    +0.000 A 
ATOM      7  C   UNL     1      -0.911   3.806  -1.623  0.00  0.00    +0.000 A 
ATOM      8  C   UNL     1      -1.635   2.631  -1.514  0.00  0.00    +0.000 A 
ATOM      9  C   UNL     1      -2.389   2.181  -2.579  0.00  0.00    +0.000 A 
ATOM     10  C   UNL     1      -2.415   2.909  -3.769  0.00  0.00    +0.000 A 
BRANCH  10  11
ATOM     11  C   UNL     1      -3.219   2.432  -4.914  0.00  0.00    +0.000 C 
ATOM     12  O   UNL     1      -3.332   3.123  -5.908  0.00  0.00    +0.000 OA
ATOM     13  N   UNL     1      -3.828   1.231  -4.856  0.00  0.00    +0.000 N 
ATOM     14  H   UNL     1      -3.732   0.646  -4.014  0.00  0.00    +0.000 HD
ATOM     15  H   UNL     1      -4.388   0.899  -5.654  0.00  0.00    +0.000 HD
ENDBRANCH  10  11
ENDBRANCH   1   8
BRANCH   1  16
ATOM     16  N   UNL     1      -0.349   0.635  -0.124  0.00  0.00    +0.000 NA
ATOM     17  H   UNL     1      -0.540  -0.377  -0.133  0.00  0.00    +0.000 HD
BRANCH  16  18
ATOM     18  C   UNL     1       1.030   1.121  -0.212  0.00  0.00    +0.000 C 
BRANCH  18  19
ATOM     19  C   UNL     1       1.982  -0.016   0.058  0.00  0.00    +0.000 C 
ATOM     20  O   UNL     1       1.550  -1.123   0.299  0.00  0.00    +0.000 OA
ATOM     21  N   UNL     1       3.312   0.197   0.030  0.00  0.00    +0.000 N 
ATOM     22  H   UNL     1       3.679   1.138  -0.175  0.00  0.00    +0.000 HD
BRANCH  21  23
ATOM     23  C   UNL     1       4.237  -0.908   0.292  0.00  0.00    +0.000 C 
BRANCH  23  24
ATOM     24  C   UNL     1       5.677  -0.401   0.200  0.00  0.00    +0.000 C 
BRANCH  24  25
ATOM     25  O   UNL     1       5.916   0.546   1.243  0.00  0.00    +0.000 OA
ATOM     26  C   UNL     1       7.239   1.085   1.248  0.00  0.00    +0.000 C 
ENDBRANCH  24  25
ENDBRANCH  23  24
ENDBRANCH  21  23
ENDBRANCH  18  19
ENDBRANCH  16  18
ENDBRANCH   1  16
TORSDOF 8
ENDMDL
MODEL       28
REMARK  Name = ZINC19622131
REMARK  11 active torsions:
REMARK  status: ('A' for Active; 'I' for Inactive)
REMARK    1  A    between atoms: C_1  and  C_2
REMARK    2  A    between atoms: C_2  and  C_3
REMARK    3  A    between atoms: C_2  and  C_13
REMARK    4  A    between atoms: C_3  and  S_4
REMARK    5  A    between atoms: S_4  and  N_7
REMARK    6  A    between atoms: N_15  and  C_16
REMARK    7  A    between atoms: C_16  and  C_17
REMARK    8  A    between atoms: C_17  and  O_18
REMARK    9  A    between atoms: C_17  and  O_20
REMARK   10  A    between atoms: O_18  and  C_19
REMARK   11  A    between atoms: O_20  and  C_21
REMARK                            x       y       z     vdW  Elec       q    Type
REMARK                         _______ _______ _______ _____ _____    ______ ____
ROOT
ATOM      1  C   UNL     1      -2.232   4.423   2.696  0.00  0.00    +0.000 C 
ATOM      2  C   UNL     1      -2.740   2.990   2.868  0.00  0.00    +0.000 C 
ENDROOT
BRANCH   2   3
ATOM      3  C   UNL     1      -3.518   2.883   4.153  0.00  0.00    +0.000 C 
ATOM      4  O   UNL     1      -3.157   2.114   5.019  0.00  0.00    +0.000 OA
ATOM      5  N   UNL     1      -4.616   3.641   4.342  0.00  0.00    +0.000 N 
ATOM      6  H   UNL     1      -4.923   4.294   3.607  0.00  0.00    +0.000 HD
BRANCH   5   7
ATOM      7  C   UNL     1      -5.373   3.537   5.592  0.00  0.00    +0.000 C 
BRANCH   7   8
ATOM      8  C   UNL     1      -6.563   4.498   5.549  0.00  0.00    +0.000 C 
BRANCH   8   9
ATOM      9  O   UNL     1      -6.089   5.836   5.389  0.00  0.00    +0.000 OA
ATOM     10  C   UNL     1      -6.978   6.832   5.899  0.00  0.00    +0.000 C 
ENDBRANCH   8   9
BRANCH   8  11
ATOM     11  O   UNL     1      -7.410   4.158   4.449  0.00  0.00    +0.000 OA
ATOM     12  C   UNL     1      -8.697   4.776   4.495  0.00  0.00    +0.000 C 
ENDBRANCH   8  11
ENDBRANCH   7   8
ENDBRANCH   5   7
ENDBRANCH   2   3
BRANCH   2  13
ATOM     13  C   UNL     1      -1.549   2.029   2.910  0.00  0.00    +0.000 C 
BRANCH  13  14
ATOM     14  S   UNL     1      -0.698   2.049   1.308  0.00  0.00    +0.000 S 
ATOM     15  O   UNL     1      -0.076   3.310   1.100  0.00  0.00    +0.000 OA
ATOM     16  O   UNL     1      -1.528   1.476   0.307  0.00  0.00    +0.000 OA
BRANCH  14  17
ATOM     17  N   UNL     1       0.556   0.982   1.480  0.00  0.00    +0.000 NA
ATOM     18  C   UNL     1       1.872   1.434   1.958  0.00  0.00    +0.000 C 
ATOM     19  C   UNL     1       2.942   0.941   0.978  0.00  0.00    +0.000 C 
ATOM     20  N   UNL     1       2.809  -0.512   0.804  0.00  0.00    +0.000 NA
ATOM     21  C   UNL     1       1.514  -0.861   0.204  0.00  0.00    +0.000 C 
ATOM     22  C   UNL     1       0.386  -0.442   1.152  0.00  0.00    +0.000 C 
ATOM     23  H   UNL     1       3.567  -0.851   0.194  0.00  0.00    +0.000 HD
ENDBRANCH  14  17
ENDBRANCH  13  14
ENDBRANCH   2  13
TORSDOF 8
ENDMDL
MODEL       29
REMARK  Name = ZINC23367083
REMARK  11 active torsions:
REMARK  status: ('A' for Active; 'I' for Inactive)
REMARK    1  A    between atoms: C_1  and  C_2
REMARK    2  A    between atoms: C_2  and  N_23
REMARK    3  A    between atoms: C_3  and  C_4
REMARK    4  A    between atoms: C_3  and  C_6
REMARK    5  A    between atoms: C_6  and  C_8
REMARK    6  A    between atoms: C_8  and  S_9
REMARK    7  A    between atoms: S_9  and  C_10
REMARK    8  A    between atoms: C_13  and  C_18
REMARK    9  A    between atoms: N_14  and  C_15
REMARK   10  A    between atoms: C_18  and  C_19
REMARK   11  A    between atoms: C_19  and  C_20
REMARK                            x       y       z     vdW  Elec       q    Type
REMARK                         _______ _______ _______ _____ _____    ______ ____
ROOT
ATOM      1  C   UNL     1       1.577   2.999   0.423  0.00  0.00    +0.000 A 
ATOM      2  N   UNL     1       2.699   3.308  -0.185  0.00  0.00    +0.000 NA
ATOM      3  N   UNL     1       3.154   2.282  -0.810  0.00  0.00    +0.000 NA
ATOM      4  C   UNL     1       2.361   1.263  -0.634  0.00  0.00    +0.000 A 
ATOM      5  N   UNL     1       1.325   1.685   0.152  0.00  0.00    +0.000 N 
ENDROOT
BRANCH   5   6
ATOM      6  C   UNL     1       0.184   0.890   0.613  0.00  0.00    +0.000 C 
ATOM      7  C   UNL     1      -0.609   1.420   1.810  0.00  0.00    +0.000 C 
ATOM      8  C   UNL     1      -1.215   1.475   0.405  0.00  0.00    +0.000 C 
ENDBRANCH   5   6
BRANCH   1   9
ATOM      9  S   UNL     1       0.586   4.076   1.404  0.00  0.00    +0.000 S 
BRANCH   9  10
ATOM     10  C   UNL     1       1.561   5.596   1.285  0.00  0.00    +0.000 C 
BRANCH  10  11
ATOM     11  C   UNL     1       0.885   6.690   2.071  0.00  0.00    +0.000 C 
ATOM     12  O   UNL     1      -0.155   6.463   2.656  0.00  0.00    +0.000 OA
BRANCH  11  15
ATOM     13  C   UNL     1      -0.666   8.829   3.140  0.00  0.00    +0.000 C 
ATOM     14  C   UNL     1       0.765   9.025   2.711  0.00  0.00    +0.000 C 
ATOM     15  C   UNL     1       1.462   7.981   2.129  0.00  0.00    +0.000 C 
BRANCH  14  16
ATOM     16  N   UNL     1       1.367  10.219   2.893  0.00  0.00    +0.000 N 
ATOM     17  H   UNL     1       0.848  10.996   3.326  0.00  0.00    +0.000 HD
ATOM     18  H   UNL     1       2.345  10.353   2.600  0.00  0.00    +0.000 HD
ENDBRANCH  14  16
BRANCH  15  19
ATOM     19  C   UNL     1       2.768   8.207   1.586  0.00  0.00    +0.000 C 
ATOM     20  N   UNL     1       3.804   8.385   1.155  0.00  0.00    +0.000 NA
ENDBRANCH  15  19
ENDBRANCH  11  15
ENDBRANCH  10  11
ENDBRANCH   9  10
ENDBRANCH   1   9
BRANCH   4  21
ATOM     21  C   UNL     1       2.549  -0.122  -1.197  0.00  0.00    +0.000 C 
BRANCH  21  22
ATOM     22  C   UNL     1       1.871  -0.213  -2.566  0.00  0.00    +0.000 C 
BRANCH  22  23
ATOM     23  C   UNL     1       2.059  -1.599  -3.128  0.00  0.00    +0.000 C 
ATOM     24  O   UNL     1       2.674  -2.431  -2.496  0.00  0.00    +0.000 OA
ATOM     25  N   UNL     1       1.544  -1.912  -4.333  0.00  0.00    +0.000 N 
ATOM     26  H   UNL     1       1.022  -1.205  -4.870  0.00  0.00    +0.000 HD
ATOM     27  H   UNL     1       1.672  -2.859  -4.718  0.00  0.00    +0.000 HD
ENDBRANCH  22  23
ENDBRANCH  21  22
ENDBRANCH   4  21
TORSDOF 10
ENDMDL
MODEL       30
REMARK  Name = ZINC02275272
REMARK  11 active torsions:
REMARK  status: ('A' for Active; 'I' for Inactive)
REMARK    1  A    between atoms: C_1  and  C_2
REMARK    2  A    between atoms: C_2  and  C_3
REMARK    3  A    between atoms: C_3  and  N_21
REMARK    4  A    between atoms: C_4  and  S_5
REMARK    5  A    between atoms: S_5  and  C_6
REMARK    6  A    between atoms: C_7  and  N_14
REMARK    7  A    between atoms: C_8  and  O_12
REMARK    8  A    between atoms: O_12  and  C_13
REMARK    9  A    between atoms: C_15  and  C_17
REMARK   10  A    between atoms: N_19  and  N_20
REMARK   11  A    between atoms: N_21  and  N_22
REMARK                            x       y       z     vdW  Elec       q    Type
REMARK                         _______ _______ _______ _____ _____    ______ ____
ROOT
ATOM      1  C   UNL     1       2.893   0.059   0.308  0.00  0.00    +0.000 A 
ATOM      2  C   UNL     1       2.019  -0.702   1.093  0.00  0.00    +0.000 A 
ATOM      3  C   UNL     1       1.015  -0.035   1.794  0.00  0.00    +0.000 A 
ATOM      4  N   UNL     1       0.928   1.288   1.692  0.00  0.00    +0.000 NA
ATOM      5  C   UNL     1       1.771   1.969   0.943  0.00  0.00    +0.000 A 
ATOM      6  N   UNL     1       2.734   1.380   0.263  0.00  0.00    +0.000 NA
ENDROOT
BRANCH   2   7
ATOM      7  N   UNL     1       2.147  -2.094   1.171  0.00  0.00    +0.000 N 
ATOM      8  C   UNL     1       1.048  -2.868   1.272  0.00  0.00    +0.000 C 
ATOM      9  O   UNL     1      -0.055  -2.362   1.241  0.00  0.00    +0.000 OA
ATOM     10  H   UNL     1       3.082  -2.527   1.151  0.00  0.00    +0.000 HD
BRANCH   8  11
ATOM     11  C   UNL     1       1.188  -4.346   1.421  0.00  0.00    +0.000 C 
ATOM     12  O   UNL     1       2.291  -4.852   1.452  0.00  0.00    +0.000 OA
ATOM     13  N   UNL     1       0.089  -5.120   1.522  0.00  0.00    +0.000 N 
ATOM     14  H   UNL     1      -0.847  -4.691   1.496  0.00  0.00    +0.000 HD
BRANCH  13  15
ATOM     15  N   UNL     1       0.216  -6.473   1.659  0.00  0.00    +0.000 NA
ATOM     16  H   UNL     1       1.153  -6.902   1.685  0.00  0.00    +0.000 HD
ATOM     17  H   UNL     1      -0.623  -7.065   1.736  0.00  0.00    +0.000 HD
ENDBRANCH  13  15
ENDBRANCH   8  11
ENDBRANCH   2   7
BRANCH   3  18
ATOM     18  O   UNL     1       0.141  -0.724   2.569  0.00  0.00    +0.000 OA
ATOM     19  C   UNL     1      -0.856   0.034   3.255  0.00  0.00    +0.000 C 
ENDBRANCH   3  18
BRANCH   1  20
ATOM     20  S   UNL     1       4.184  -0.720  -0.605  0.00  0.00    +0.000 S 
BRANCH  20  22
ATOM     21  C   UNL     1       5.963   0.546  -2.164  0.00  0.00    +0.000 C 
ATOM     22  C   UNL     1       4.917   0.692  -1.362  0.00  0.00    +0.000 C 
BRANCH  21  23
ATOM     23  N   UNL     1       6.395  -0.735  -2.524  0.00  0.00    +0.000 N 
ATOM     24  H   UNL     1       7.260  -0.852  -3.071  0.00  0.00    +0.000 HD
BRANCH  23  25
ATOM     25  N   UNL     1       5.670  -1.831  -2.150  0.00  0.00    +0.000 NA
ATOM     26  H   UNL     1       4.726  -1.665  -2.528  0.00  0.00    +0.000 HD
ATOM     27  H   UNL     1       5.600  -1.765  -1.125  0.00  0.00    +0.000 HD
ENDBRANCH  23  25
ENDBRANCH  21  23
BRANCH  21  29
ATOM     28  C   UNL     1       7.882   2.070  -1.787  0.00  0.00    +0.000 C 
ATOM     29  C   UNL     1       6.685   1.760  -2.688  0.00  0.00    +0.000 C 
ENDBRANCH  21  29
ENDBRANCH  20  22
ENDBRANCH   1  20
TORSDOF 9
ENDMDL
MODEL       31
REMARK  Name = ZINC28295725
REMARK  9 active torsions:
REMARK  status: ('A' for Active; 'I' for Inactive)
REMARK    1  A    between atoms: C_7  and  C_19
REMARK    2  A    between atoms: N_9  and  C_10
REMARK    3  A    between atoms: C_10  and  C_11
REMARK    4  A    between atoms: C_11  and  C_12
REMARK    5  A    between atoms: C_11  and  O_18
REMARK    6  A    between atoms: C_12  and  N_13
REMARK    7  A    between atoms: N_13  and  C_14
REMARK    8  A    between atoms: C_14  and  C_15
REMARK    9  A    between atoms: N_20  and  N_21
REMARK                            x       y       z     vdW  Elec       q    Type
REMARK                         _______ _______ _______ _____ _____    ______ ____
ROOT
ATOM      1  C   UNL     1      -1.227   1.747   0.017  0.00  0.00    +0.000 A 
ATOM      2  C   UNL     1      -0.013   1.076   0.008  0.00  0.00    +0.000 A 
ATOM      3  C   UNL     1       1.175   1.774   0.000  0.00  0.00    +0.000 A 
ATOM      4  C   UNL     1       1.159   3.166   0.007  0.00  0.00    +0.000 A 
ATOM      5  C   UNL     1      -0.075   3.838   0.022  0.00  0.00    +0.000 A 
ATOM      6  C   UNL     1      -1.265   3.113   0.031  0.00  0.00    +0.000 A 
ATOM      7  C   UNL     1       0.247   5.276   0.027  0.00  0.00    +0.000 A 
ATOM      8  C   UNL     1       1.604   5.371   0.015  0.00  0.00    +0.000 A 
ATOM      9  N   UNL     1       2.151   4.122   0.003  0.00  0.00    +0.000 N 
ENDROOT
BRANCH   7  10
ATOM     10  C   UNL     1      -0.713   6.393   0.040  0.00  0.00    +0.000 C 
ATOM     11  N   UNL     1      -1.989   6.152   0.051  0.00  0.00    +0.000 NA
BRANCH  11  12
ATOM     12  N   UNL     1      -2.902   7.214   0.064  0.00  0.00    +0.000 N 
ATOM     13  C   UNL     1      -4.226   6.964   0.074  0.00  0.00    +0.000 C 
ATOM     14  O   UNL     1      -5.019   7.886   0.086  0.00  0.00    +0.000 OA
ATOM     15  N   UNL     1      -4.672   5.692   0.073  0.00  0.00    +0.000 N 
ATOM     16  H   UNL     1      -2.562   8.186   0.065  0.00  0.00    +0.000 HD
ATOM     17  H   UNL     1      -4.001   4.911   0.063  0.00  0.00    +0.000 HD
ATOM     18  H   UNL     1      -5.684   5.501   0.081  0.00  0.00    +0.000 HD
ENDBRANCH  11  12
ENDBRANCH   7  10
BRANCH   9  19
ATOM     19  C   UNL     1       3.588   3.838  -0.012  0.00  0.00    +0.000 C 
BRANCH  19  20
ATOM     20  C   UNL     1       4.050   3.623  -1.455  0.00  0.00    +0.000 C 
BRANCH  20  21
ATOM     21  O   UNL     1       3.427   2.451  -1.985  0.00  0.00    +0.000 OA
ATOM     22  H   UNL     1       2.444   2.563  -1.968  0.00  0.00    +0.000 HD
ENDBRANCH  20  21
BRANCH  20  23
ATOM     23  C   UNL     1       5.570   3.450  -1.483  0.00  0.00    +0.000 C 
BRANCH  23  24
ATOM     24  N   UNL     1       6.027   3.364  -2.877  0.00  0.00    +0.000 N 
ATOM     25  H   UNL     1       5.573   2.560  -3.334  0.00  0.00    +0.000 HD
ATOM     26  H   UNL     1       5.762   4.224  -3.376  0.00  0.00    +0.000 HD
BRANCH  24  27
ATOM     27  C   UNL     1       7.485   3.196  -2.943  0.00  0.00    +0.000 C 
BRANCH  27  28
ATOM     28  C   UNL     1       7.916   3.112  -4.385  0.00  0.00    +0.000 C 
ATOM     29  O   UNL     1       7.093   3.183  -5.266  0.00  0.00    +0.000 OA
ATOM     30  O   UNL     1       9.214   2.957  -4.689  0.00  0.00    +0.000 OA
ENDBRANCH  27  28
ENDBRANCH  24  27
ENDBRANCH  23  24
ENDBRANCH  20  23
ENDBRANCH  19  20
ENDBRANCH   9  19
TORSDOF 9
ENDMDL
MODEL       32
REMARK  Name = ZINC03627636
REMARK  10 active torsions:
REMARK  status: ('A' for Active; 'I' for Inactive)
REMARK    1  A    between atoms: C_1  and  C_2
REMARK    2  A    between atoms: C_2  and  C_3
REMARK    3  A    between atoms: C_3  and  N_4
REMARK    4  A    between atoms: N_4  and  C_5
REMARK    5  A    between atoms: N_4  and  C_8
REMARK    6  A    between atoms: C_5  and  C_6
REMARK    7  A    between atoms: C_6  and  C_7
REMARK    8  A    between atoms: C_8  and  C_9
REMARK    9  A    between atoms: C_10  and  C_20
REMARK   10  A    between atoms: N_22  and  N_23
REMARK                            x       y       z     vdW  Elec       q    Type
REMARK                         _______ _______ _______ _____ _____    ______ ____
ROOT
ATOM      1  C   UNL     1      -0.437   5.498   0.065  0.00  0.00    +0.000 A 
ATOM      2  C   UNL     1       0.787   6.103   0.035  0.00  0.00    +0.000 A 
ATOM      3  N   UNL     1       1.734   5.149   0.046  0.00  0.00    +0.000 NA
ATOM      4  N   UNL     1       1.178   3.989   0.085  0.00  0.00    +0.000 NA
ATOM      5  N   UNL     1      -0.213   4.166   0.102  0.00  0.00    +0.000 N 
ATOM      6  C   UNL     1      -1.182   3.157   0.144  0.00  0.00    +0.000 A 
ATOM      7  C   UNL     1      -0.919   1.716   0.178  0.00  0.00    +0.000 A 
ATOM      8  N   UNL     1      -2.063   1.090   0.218  0.00  0.00    +0.000 NA
ATOM      9  O   UNL     1      -3.091   2.066   0.205  0.00  0.00    +0.000 OA
ATOM     10  N   UNL     1      -2.472   3.339   0.154  0.00  0.00    +0.000 NA
ATOM     11  N   UNL     1       0.336   1.117   0.175  0.00  0.00    +0.000 N 
ATOM     12  H   UNL     1       1.138   1.762   0.146  0.00  0.00    +0.000 HD
ATOM     13  H   UNL     1       0.473   0.096   0.200  0.00  0.00    +0.000 HD
ENDROOT
BRANCH   2  14
ATOM     14  C   UNL     1       1.028   7.558  -0.009  0.00  0.00    +0.000 C 
ATOM     15  O   UNL     1       0.089   8.330  -0.015  0.00  0.00    +0.000 OA
ATOM     16  N   UNL     1       2.290   8.031  -0.041  0.00  0.00    +0.000 N 
ATOM     17  H   UNL     1       3.086   7.377  -0.036  0.00  0.00    +0.000 HD
BRANCH  16  18
ATOM     18  N   UNL     1       2.514   9.378  -0.081  0.00  0.00    +0.000 NA
ATOM     19  H   UNL     1       1.718  10.032  -0.087  0.00  0.00    +0.000 HD
ATOM     20  H   UNL     1       3.478   9.739  -0.106  0.00  0.00    +0.000 HD
ENDBRANCH  16  18
ENDBRANCH   2  14
BRANCH   1  21
ATOM     21  C   UNL     1      -1.779   6.183   0.060  0.00  0.00    +0.000 C 
BRANCH  21  22
ATOM     22  N   UNL     1      -2.276   6.297   1.438  0.00  0.00    +0.000 N 
ATOM     23  H   UNL     1      -2.157   5.381   1.893  0.00  0.00    +0.000 HD
BRANCH  22  24
ATOM     24  C   UNL     1      -3.707   6.629   1.456  0.00  0.00    +0.000 C 
BRANCH  24  25
ATOM     25  C   UNL     1      -4.524   5.380   1.119  0.00  0.00    +0.000 C 
ATOM     26  C   UNL     1      -6.015   5.691   1.267  0.00  0.00    +0.000 C 
ENDBRANCH  24  25
ENDBRANCH  22  24
BRANCH  22  27
ATOM     27  C   UNL     1      -1.497   7.284   2.198  0.00  0.00    +0.000 C 
BRANCH  27  29
ATOM     28  C   UNL     1      -1.061   8.225   4.471  0.00  0.00    +0.000 C 
ATOM     29  C   UNL     1      -1.872   7.198   3.679  0.00  0.00    +0.000 C 
ENDBRANCH  27  29
ENDBRANCH  22  27
ENDBRANCH  21  22
ENDBRANCH   1  21
TORSDOF 8
ENDMDL
MODEL       33
REMARK  Name = ZINC27418721
REMARK  10 active torsions:
REMARK  status: ('A' for Active; 'I' for Inactive)
REMARK    1  A    between atoms: C_2  and  C_16
REMARK    2  A    between atoms: N_8  and  C_9
REMARK    3  A    between atoms: C_9  and  O_10
REMARK    4  A    between atoms: O_10  and  C_11
REMARK    5  A    between atoms: C_11  and  C_12
REMARK    6  A    between atoms: C_11  and  C_14
REMARK    7  A    between atoms: C_12  and  O_13
REMARK    8  A    between atoms: C_14  and  O_15
REMARK    9  A    between atoms: C_16  and  C_17
REMARK   10  A    between atoms: C_16  and  N_19
REMARK                            x       y       z     vdW  Elec       q    Type
REMARK                         _______ _______ _______ _____ _____    ______ ____
ROOT
ATOM      1  C   UNL     1       1.523   4.064   1.123  0.00  0.00    +0.000 A 
ATOM      2  C   UNL     1       0.954   3.342   0.135  0.00  0.00    +0.000 A 
ATOM      3  C   UNL     1       0.075   3.985  -0.770  0.00  0.00    +0.000 A 
ATOM      4  O   UNL     1      -0.453   3.353  -1.667  0.00  0.00    +0.000 OA
ATOM      5  N   UNL     1      -0.170   5.303  -0.630  0.00  0.00    +0.000 N 
ATOM      6  C   UNL     1       0.415   6.001   0.361  0.00  0.00    +0.000 A 
ATOM      7  O   UNL     1       0.184   7.189   0.475  0.00  0.00    +0.000 OA
ATOM      8  N   UNL     1       1.252   5.402   1.228  0.00  0.00    +0.000 N 
ATOM      9  H   UNL     1      -0.808   5.779  -1.284  0.00  0.00    +0.000 HD
ENDROOT
BRANCH   8  10
ATOM     10  C   UNL     1       1.874   6.187   2.297  0.00  0.00    +0.000 C 
BRANCH  10  11
ATOM     11  O   UNL     1       0.907   6.457   3.313  0.00  0.00    +0.000 OA
BRANCH  11  12
ATOM     12  C   UNL     1       0.689   5.368   4.213  0.00  0.00    +0.000 C 
BRANCH  12  13
ATOM     13  C   UNL     1       0.293   5.913   5.587  0.00  0.00    +0.000 C 
BRANCH  13  14
ATOM     14  O   UNL     1      -0.967   6.581   5.489  0.00  0.00    +0.000 OA
ATOM     15  H   UNL     1      -1.656   5.942   5.177  0.00  0.00    +0.000 HD
ENDBRANCH  13  14
ENDBRANCH  12  13
BRANCH  12  16
ATOM     16  C   UNL     1      -0.433   4.479   3.674  0.00  0.00    +0.000 C 
BRANCH  16  17
ATOM     17  O   UNL     1      -1.659   5.212   3.664  0.00  0.00    +0.000 OA
ATOM     18  H   UNL     1      -1.564   6.009   3.085  0.00  0.00    +0.000 HD
ENDBRANCH  16  17
ENDBRANCH  12  16
ENDBRANCH  11  12
ENDBRANCH  10  11
ENDBRANCH   8  10
BRANCH   2  19
ATOM     19  C   UNL     1       1.246   1.869   0.000  0.00  0.00    +0.000 C 
BRANCH  19  20
ATOM     20  N   UNL     1      -0.013   1.120   0.008  0.00  0.00    +0.000 NA
ATOM     21  N   UNL     1       0.002  -0.004   0.002  0.00  0.00    +0.000 NA
ATOM     22  N   UNL     1       0.017  -1.128  -0.004  0.00  0.00    +0.000 NA
ENDBRANCH  19  20
BRANCH  19  23
ATOM     23  C   UNL     1       1.983   1.614  -1.316  0.00  0.00    +0.000 C 
ATOM     24 CL   UNL     1       2.332  -0.148  -1.477  0.00  0.00    +0.000 Cl
ENDBRANCH  19  23
ENDBRANCH   2  19
TORSDOF 10
ENDMDL
MODEL       34
REMARK  Name = ZINC21981401
REMARK  11 active torsions:
REMARK  status: ('A' for Active; 'I' for Inactive)
REMARK    1  A    between atoms: C_1  and  C_2
REMARK    2  A    between atoms: C_2  and  C_3
REMARK    3  A    between atoms: C_2  and  C_4
REMARK    4  A    between atoms: C_4  and  C_5
REMARK    5  A    between atoms: C_4  and  N_23
REMARK    6  A    between atoms: C_5  and  O_7
REMARK    7  A    between atoms: O_7  and  C_8
REMARK    8  A    between atoms: C_8  and  C_9
REMARK    9  A    between atoms: C_9  and  O_10
REMARK   10  A    between atoms: O_10  and  C_11
REMARK   11  A    between atoms: C_11  and  N_12
REMARK                            x       y       z     vdW  Elec       q    Type
REMARK                         _______ _______ _______ _____ _____    ______ ____
ROOT
ATOM      1  C   UNL     1       0.002  -0.004   0.002  0.00  0.00    +0.000 C 
ENDROOT
BRANCH   1   2
ATOM      2  N   UNL     1       0.262  -0.496   1.357  0.00  0.00    +0.000 N 
ATOM      3  C   UNL     1      -0.604  -0.539   2.447  0.00  0.00    +0.000 C 
ATOM      4  N   UNL     1       0.031  -0.477   3.592  0.00  0.00    +0.000 NA
ATOM      5  C   UNL     1       1.443  -0.351   3.293  0.00  0.00    +0.000 C 
ATOM      6  C   UNL     1       1.489  -1.070   1.898  0.00  0.00    +0.000 C 
ATOM      7  N   UNL     1       2.778  -0.725   1.337  0.00  0.00    +0.000 NA
ATOM      8  C   UNL     1       3.806  -0.861   2.155  0.00  0.00    +0.000 C 
ATOM      9  N   UNL     1       3.633  -1.318   3.452  0.00  0.00    +0.000 N 
ATOM     10  C   UNL     1       2.468  -1.049   4.121  0.00  0.00    +0.000 C 
ATOM     11  O   UNL     1       2.287  -1.350   5.281  0.00  0.00    +0.000 OA
ATOM     12  N   UNL     1       5.067  -0.543   1.712  0.00  0.00    +0.000 N 
ATOM     13  H   UNL     1       4.379  -1.859   3.913  0.00  0.00    +0.000 HD
ATOM     14  H   UNL     1       5.212  -0.203   0.751  0.00  0.00    +0.000 HD
ATOM     15  H   UNL     1       5.872  -0.647   2.346  0.00  0.00    +0.000 HD
ENDBRANCH   1   2
BRANCH   1  16
ATOM     16  O   UNL     1      -0.017   1.425   0.010  0.00  0.00    +0.000 OA
BRANCH  16  17
ATOM     17  C   UNL     1       1.280   2.024   0.001  0.00  0.00    +0.000 C 
BRANCH  17  18
ATOM     18  C   UNL     1       1.139   3.547   0.010  0.00  0.00    +0.000 C 
BRANCH  18  19
ATOM     19  O   UNL     1       0.530   3.969   1.259  0.00  0.00    +0.000 OA
BRANCH  19  20
ATOM     20  C   UNL     1       0.334   5.286   1.427  0.00  0.00    +0.000 C 
ATOM     21  O   UNL     1       0.661   6.061   0.560  0.00  0.00    +0.000 OA
BRANCH  20  22
ATOM     22  C   UNL     1      -0.293   5.798   2.698  0.00  0.00    +0.000 C 
BRANCH  22  23
ATOM     23  N   UNL     1       0.026   7.223   2.862  0.00  0.00    +0.000 N 
ATOM     24  H   UNL     1      -0.402   7.574   3.731  0.00  0.00    +0.000 HD
ATOM     25  H   UNL     1      -0.342   7.753   2.060  0.00  0.00    +0.000 HD
ATOM     26  H   UNL     1       1.048   7.343   2.912  0.00  0.00    +0.000 HD
ENDBRANCH  22  23
BRANCH  22  28
ATOM     27  C   UNL     1      -2.144   4.138   2.454  0.00  0.00    +0.000 C 
ATOM     28  C   UNL     1      -1.811   5.621   2.625  0.00  0.00    +0.000 C 
ATOM     29  C   UNL     1      -2.448   6.141   3.916  0.00  0.00    +0.000 C 
ENDBRANCH  22  28
ENDBRANCH  20  22
ENDBRANCH  19  20
ENDBRANCH  18  19
ENDBRANCH  17  18
ENDBRANCH  16  17
ENDBRANCH   1  16
TORSDOF 9
ENDMDL
MODEL       35
REMARK  Name = ZINC14418737
REMARK  13 active torsions:
REMARK  status: ('A' for Active; 'I' for Inactive)
REMARK    1  A    between atoms: C_1  and  C_2
REMARK    2  A    between atoms: C_2  and  O_4
REMARK    3  A    between atoms: O_4  and  C_5
REMARK    4  A    between atoms: C_6  and  C_21
REMARK    5  A    between atoms: C_8  and  O_19
REMARK    6  A    between atoms: C_9  and  O_15
REMARK    7  A    between atoms: C_10  and  O_11
REMARK    8  A    between atoms: O_11  and  C_12
REMARK    9  A    between atoms: C_12  and  C_14
REMARK   10  A    between atoms: O_15  and  C_16
REMARK   11  A    between atoms: C_16  and  C_18
REMARK   12  A    between atoms: O_19  and  C_20
REMARK   13  A    between atoms: C_21  and  N_22
REMARK                            x       y       z     vdW  Elec       q    Type
REMARK                         _______ _______ _______ _____ _____    ______ ____
ROOT
ATOM      1  C   UNL     1       2.091  -0.124  -1.207  0.00  0.00    +0.000 C 
ATOM      2  C   UNL     1       0.628  -0.573  -1.150  0.00  0.00    +0.000 C 
ATOM      3  O   UNL     1       0.002  -0.004   0.002  0.00  0.00    +0.000 OA
ATOM      4  C   UNL     1      -0.017   1.425   0.010  0.00  0.00    +0.000 C 
ATOM      5  C   UNL     1       1.419   1.953  -0.001  0.00  0.00    +0.000 C 
ATOM      6  C   UNL     1       2.147   1.406  -1.233  0.00  0.00    +0.000 C 
ENDROOT
BRANCH   4   7
ATOM      7  O   UNL     1      -0.686   1.886   1.186  0.00  0.00    +0.000 OA
ATOM      8  C   UNL     1      -2.071   1.540   1.240  0.00  0.00    +0.000 C 
ENDBRANCH   4   7
BRANCH   6   9
ATOM      9  O   UNL     1       1.500   1.896  -2.437  0.00  0.00    +0.000 OA
BRANCH   9  10
ATOM     10  C   UNL     1       1.955   3.051  -2.946  0.00  0.00    +0.000 C 
ATOM     11  O   UNL     1       2.864   3.635  -2.404  0.00  0.00    +0.000 OA
ATOM     12  C   UNL     1       1.332   3.622  -4.194  0.00  0.00    +0.000 C 
ENDBRANCH   9  10
ENDBRANCH   6   9
BRANCH   1  13
ATOM     13  O   UNL     1       2.714  -0.654  -2.407  0.00  0.00    +0.000 OA
BRANCH  13  15
ATOM     14  C   UNL     1       3.967  -2.472  -3.513  0.00  0.00    +0.000 C 
ATOM     15  C   UNL     1       3.300  -1.858  -2.309  0.00  0.00    +0.000 C 
ATOM     16  O   UNL     1       3.292  -2.449  -1.255  0.00  0.00    +0.000 OA
ENDBRANCH  13  15
ENDBRANCH   1  13
BRANCH   2  17
ATOM     17  C   UNL     1       0.565  -2.099  -1.063  0.00  0.00    +0.000 C 
BRANCH  17  18
ATOM     18  N   UNL     1      -0.842  -2.527  -1.151  0.00  0.00    +0.000 N 
ATOM     19  H   UNL     1      -1.245  -2.218  -2.047  0.00  0.00    +0.000 HD
ATOM     20  H   UNL     1      -1.379  -2.118  -0.372  0.00  0.00    +0.000 HD
ATOM     21  H   UNL     1      -0.889  -3.554  -1.093  0.00  0.00    +0.000 HD
ENDBRANCH  17  18
ENDBRANCH   2  17
BRANCH   5  22
ATOM     22  O   UNL     1       2.106   1.517   1.202  0.00  0.00    +0.000 OA
BRANCH  22  23
ATOM     23  C   UNL     1       2.034   2.325   2.271  0.00  0.00    +0.000 C 
ATOM     24  O   UNL     1       1.418   3.362   2.205  0.00  0.00    +0.000 OA
ATOM     25  C   UNL     1       2.722   1.938   3.555  0.00  0.00    +0.000 C 
ENDBRANCH  22  23
ENDBRANCH   5  22
TORSDOF 9
ENDMDL
MODEL       36
REMARK  Name = ZINC13471957
REMARK  10 active torsions:
REMARK  status: ('A' for Active; 'I' for Inactive)
REMARK    1  A    between atoms: C_1  and  O_2
REMARK    2  A    between atoms: O_2  and  C_3
REMARK    3  A    between atoms: C_6  and  O_18
REMARK    4  A    between atoms: C_8  and  C_9
REMARK    5  A    between atoms: C_9  and  C_10
REMARK    6  A    between atoms: C_15  and  N_16
REMARK    7  A    between atoms: O_18  and  C_19
REMARK    8  A    between atoms: C_19  and  C_20
REMARK    9  A    between atoms: C_20  and  C_21
REMARK   10  A    between atoms: C_21  and  C_22
REMARK                            x       y       z     vdW  Elec       q    Type
REMARK                         _______ _______ _______ _____ _____    ______ ____
ROOT
ATOM      1  C   UNL     1       1.179   1.786   0.000  0.00  0.00    +0.000 A 
ATOM      2  C   UNL     1      -0.013   1.076   0.008  0.00  0.00    +0.000 A 
ATOM      3  C   UNL     1      -1.218   1.750   0.017  0.00  0.00    +0.000 A 
ATOM      4  C   UNL     1      -1.237   3.137   0.030  0.00  0.00    +0.000 A 
ATOM      5  C   UNL     1      -0.045   3.847   0.022  0.00  0.00    +0.000 A 
ATOM      6  C   UNL     1       1.160   3.172   0.007  0.00  0.00    +0.000 A 
ENDROOT
BRANCH   1   8
ATOM      7  C   UNL     1       2.311  -0.306  -0.021  0.00  0.00    +0.000 C 
ATOM      8  O   UNL     1       2.366   1.122  -0.014  0.00  0.00    +0.000 OA
ENDBRANCH   1   8
BRANCH   6   9
ATOM      9  C   UNL     1       2.455   3.943  -0.002  0.00  0.00    +0.000 C 
BRANCH   9  10
ATOM     10  C   UNL     1       2.936   4.101  -1.422  0.00  0.00    +0.000 A 
ATOM     11  C   UNL     1       3.848   3.214  -1.961  0.00  0.00    +0.000 A 
ATOM     12  N   UNL     1       4.250   3.380  -3.212  0.00  0.00    +0.000 NA
ATOM     13  C   UNL     1       3.791   4.381  -3.949  0.00  0.00    +0.000 A 
ATOM     14  N   UNL     1       2.916   5.252  -3.470  0.00  0.00    +0.000 NA
ATOM     15  C   UNL     1       2.466   5.143  -2.224  0.00  0.00    +0.000 A 
ATOM     16  N   UNL     1       4.236   4.519  -5.252  0.00  0.00    +0.000 N 
ATOM     17  H   UNL     1       4.917   3.854  -5.647  0.00  0.00    +0.000 HD
ATOM     18  H   UNL     1       3.884   5.295  -5.830  0.00  0.00    +0.000 HD
BRANCH  15  19
ATOM     19  N   UNL     1       1.546   6.052  -1.727  0.00  0.00    +0.000 N 
ATOM     20  H   UNL     1       1.209   5.958  -0.758  0.00  0.00    +0.000 HD
ATOM     21  H   UNL     1       1.202   6.819  -2.321  0.00  0.00    +0.000 HD
ENDBRANCH  15  19
ENDBRANCH   9  10
ENDBRANCH   6   9
BRANCH   4  22
ATOM     22  O   UNL     1      -2.423   3.801   0.044  0.00  0.00    +0.000 OA
BRANCH  22  23
ATOM     23  C   UNL     1      -3.611   3.006   0.052  0.00  0.00    +0.000 C 
BRANCH  23  24
ATOM     24  C   UNL     1      -4.837   3.922   0.068  0.00  0.00    +0.000 C 
BRANCH  24  25
ATOM     25  C   UNL     1      -6.109   3.071   0.076  0.00  0.00    +0.000 C 
BRANCH  25  26
ATOM     26  C   UNL     1      -7.316   3.973   0.092  0.00  0.00    +0.000 C 
ATOM     27  O   UNL     1      -7.174   5.173   0.096  0.00  0.00    +0.000 OA
ATOM     28  O   UNL     1      -8.549   3.443   0.101  0.00  0.00    +0.000 OA
ENDBRANCH  25  26
ENDBRANCH  24  25
ENDBRANCH  23  24
ENDBRANCH  22  23
ENDBRANCH   4  22
TORSDOF 9
ENDMDL
MODEL       37
REMARK  Name = ZINC04535649
REMARK  11 active torsions:
REMARK  status: ('A' for Active; 'I' for Inactive)
REMARK    1  A    between atoms: C_1  and  C_2
REMARK    2  A    between atoms: C_2  and  C_4
REMARK    3  A    between atoms: N_8  and  C_18
REMARK    4  A    between atoms: C_9  and  C_10
REMARK    5  A    between atoms: C_15  and  O_16
REMARK    6  A    between atoms: O_16  and  C_17
REMARK    7  A    between atoms: C_18  and  C_19
REMARK    8  A    between atoms: C_19  and  N_24
REMARK    9  A    between atoms: C_20  and  C_21
REMARK   10  A    between atoms: C_20  and  N_24
REMARK   11  A    between atoms: C_21  and  O_22
REMARK                            x       y       z     vdW  Elec       q    Type
REMARK                         _______ _______ _______ _____ _____    ______ ____
ROOT
ATOM      1  C   UNL     1       1.291   4.041  -1.442  0.00  0.00    +0.000 C 
ATOM      2  C   UNL     1       0.262   4.897  -1.657  0.00  0.00    +0.000 C 
ATOM      3  C   UNL     1      -0.756   4.704  -0.601  0.00  0.00    +0.000 C 
ATOM      4  O   UNL     1      -1.799   5.322  -0.516  0.00  0.00    +0.000 OA
ATOM      5  N   UNL     1      -0.358   3.742   0.251  0.00  0.00    +0.000 N 
ATOM      6  C   UNL     1       0.949   3.250  -0.202  0.00  0.00    +0.000 C 
ATOM      7  O   UNL     1       0.180   5.785  -2.672  0.00  0.00    +0.000 OA
ENDROOT
BRANCH   6   8
ATOM      8  C   UNL     1       0.863   1.781  -0.531  0.00  0.00    +0.000 A 
ATOM      9  C   UNL     1       1.886   0.929  -0.161  0.00  0.00    +0.000 A 
ATOM     10  C   UNL     1       1.808  -0.418  -0.462  0.00  0.00    +0.000 A 
ATOM     11  C   UNL     1       0.706  -0.916  -1.133  0.00  0.00    +0.000 A 
ATOM     12  C   UNL     1      -0.319  -0.068  -1.505  0.00  0.00    +0.000 A 
ATOM     13  C   UNL     1      -0.243   1.284  -1.205  0.00  0.00    +0.000 A 
BRANCH  13  14
ATOM     14  O   UNL     1      -1.250   2.120  -1.570  0.00  0.00    +0.000 OA
ATOM     15  C   UNL     1      -2.357   1.539  -2.261  0.00  0.00    +0.000 C 
ENDBRANCH  13  14
ENDBRANCH   6   8
BRANCH   1  17
ATOM     16  C   UNL     1       3.571   2.996  -1.784  0.00  0.00    +0.000 C 
ATOM     17  C   UNL     1       2.461   3.913  -2.229  0.00  0.00    +0.000 C 
ATOM     18  O   UNL     1       2.569   4.541  -3.262  0.00  0.00    +0.000 OA
ENDBRANCH   1  17
BRANCH   5  19
ATOM     19  C   UNL     1      -1.098   3.269   1.423  0.00  0.00    +0.000 C 
BRANCH  19  20
ATOM     20  C   UNL     1      -0.699   4.096   2.647  0.00  0.00    +0.000 C 
BRANCH  20  21
ATOM     21  N   UNL     1      -1.448   3.614   3.822  0.00  0.00    +0.000 N 
ATOM     22  H   UNL     1      -2.458   3.711   3.647  0.00  0.00    +0.000 HD
ATOM     23  H   UNL     1      -1.228   2.620   3.984  0.00  0.00    +0.000 HD
BRANCH  21  24
ATOM     24  C   UNL     1      -1.083   4.395   5.019  0.00  0.00    +0.000 C 
BRANCH  24  25
ATOM     25  C   UNL     1      -1.874   3.873   6.219  0.00  0.00    +0.000 C 
BRANCH  25  26
ATOM     26  O   UNL     1      -1.476   2.530   6.504  0.00  0.00    +0.000 OA
ATOM     27  H   UNL     1      -0.509   2.509   6.713  0.00  0.00    +0.000 HD
ENDBRANCH  25  26
ENDBRANCH  24  25
ENDBRANCH  21  24
ENDBRANCH  20  21
ENDBRANCH  19  20
ENDBRANCH   5  19
TORSDOF 9
ENDMDL
MODEL       38
REMARK  Name = ZINC29485053
REMARK  10 active torsions:
REMARK  status: ('A' for Active; 'I' for Inactive)
REMARK    1  A    between atoms: C_1  and  C_2
REMARK    2  A    between atoms: C_2  and  N_3
REMARK    3  A    between atoms: N_3  and  C_4
REMARK    4  A    between atoms: C_11  and  C_13
REMARK    5  A    between atoms: C_13  and  S_14
REMARK    6  A    between atoms: S_14  and  C_15
REMARK    7  A    between atoms: N_16  and  C_17
REMARK    8  A    between atoms: C_17  and  C_18
REMARK    9  A    between atoms: C_18  and  O_19
REMARK   10  A    between atoms: O_19  and  C_20
REMARK                            x       y       z     vdW  Elec       q    Type
REMARK                         _______ _______ _______ _____ _____    ______ ____
ROOT
ATOM      1  N   UNL     1       0.058   2.407  -1.906  0.00  0.00    +0.000 N 
ATOM      2  C   UNL     1       1.183   3.150  -1.873  0.00  0.00    +0.000 C 
ATOM      3  O   UNL     1       1.512   3.706  -0.847  0.00  0.00    +0.000 OA
ENDROOT
BRANCH   1   4
ATOM      4  C   UNL     1      -0.766   2.272  -0.702  0.00  0.00    +0.000 C 
ATOM      5  C   UNL     1      -1.258   3.660  -0.264  0.00  0.00    +0.000 C 
ATOM      6  C   UNL     1      -1.855   3.533   1.167  0.00  0.00    +0.000 C 
ATOM      7  S   UNL     1      -0.626   2.394   1.945  0.00  0.00    +0.000 S 
ATOM      8  O   UNL     1      -1.320   1.399   2.686  0.00  0.00    +0.000 OA
ATOM      9  O   UNL     1       0.383   3.164   2.583  0.00  0.00    +0.000 OA
ATOM     10  C   UNL     1       0.075   1.629   0.427  0.00  0.00    +0.000 C 
ENDBRANCH   1   4
BRANCH   1  12
ATOM     11  C   UNL     1      -1.236   2.665  -3.965  0.00  0.00    +0.000 C 
ATOM     12  C   UNL     1      -0.339   1.735  -3.146  0.00  0.00    +0.000 C 
ENDBRANCH   1  12
BRANCH   2  13
ATOM     13  C   UNL     1       2.030   3.289  -3.111  0.00  0.00    +0.000 C 
BRANCH  13  14
ATOM     14  S   UNL     1       3.459   4.339  -2.749  0.00  0.00    +0.000 S 
BRANCH  14  15
ATOM     15  C   UNL     1       4.252   4.331  -4.322  0.00  0.00    +0.000 C 
ATOM     16  N   UNL     1       3.729   3.661  -5.312  0.00  0.00    +0.000 N 
ATOM     17  N   UNL     1       5.422   5.031  -4.507  0.00  0.00    +0.000 N 
ATOM     18  H   UNL     1       2.908   3.060  -5.151  0.00  0.00    +0.000 HD
ATOM     19  H   UNL     1       5.834   5.560  -3.726  0.00  0.00    +0.000 HD
ATOM     20  H   UNL     1       5.885   5.026  -5.427  0.00  0.00    +0.000 HD
BRANCH  16  21
ATOM     21  C   UNL     1       4.311   3.763  -6.653  0.00  0.00    +0.000 C 
BRANCH  21  22
ATOM     22  C   UNL     1       4.897   2.409  -7.059  0.00  0.00    +0.000 C 
BRANCH  22  23
ATOM     23  O   UNL     1       3.844   1.449  -7.175  0.00  0.00    +0.000 OA
ATOM     24  C   UNL     1       4.287   0.144  -7.552  0.00  0.00    +0.000 C 
ENDBRANCH  22  23
ENDBRANCH  21  22
ENDBRANCH  16  21
ENDBRANCH  14  15
ENDBRANCH  13  14
ENDBRANCH   2  13
TORSDOF 8
ENDMDL
MODEL       39
REMARK  Name = ZINC10315608
REMARK  8 active torsions:
REMARK  status: ('A' for Active; 'I' for Inactive)
REMARK    1  A    between atoms: C_3  and  C_20
REMARK    2  A    between atoms: C_6  and  C_7
REMARK    3  A    between atoms: C_7  and  N_22
REMARK    4  A    between atoms: C_8  and  C_9
REMARK    5  A    between atoms: C_8  and  N_22
REMARK    6  A    between atoms: C_9  and  N_10
REMARK    7  A    between atoms: N_10  and  C_11
REMARK    8  A    between atoms: C_14  and  N_17
REMARK                            x       y       z     vdW  Elec       q    Type
REMARK                         _______ _______ _______ _____ _____    ______ ____
ROOT
ATOM      1  C   UNL     1      -0.062   1.117  -2.413  0.00  0.00    +0.000 C 
ENDROOT
BRANCH   1   2
ATOM      2  N   UNL     1      -0.732   1.579  -1.182  0.00  0.00    +0.000 N 
ATOM      3  H   UNL     1      -1.699   1.225  -1.167  0.00  0.00    +0.000 HD
ATOM      4  H   UNL     1      -0.750   2.608  -1.169  0.00  0.00    +0.000 HD
BRANCH   2   5
ATOM      5  C   UNL     1      -0.013   1.086   0.008  0.00  0.00    +0.000 C 
BRANCH   5  11
ATOM      6  C   UNL     1      -0.357   2.780   1.817  0.00  0.00    +0.000 A 
ATOM      7  C   UNL     1      -1.002   3.234   2.949  0.00  0.00    +0.000 A 
ATOM      8  C   UNL     1      -2.014   2.465   3.527  0.00  0.00    +0.000 A 
ATOM      9  C   UNL     1      -2.369   1.243   2.951  0.00  0.00    +0.000 A 
ATOM     10  C   UNL     1      -1.720   0.805   1.816  0.00  0.00    +0.000 A 
ATOM     11  C   UNL     1      -0.718   1.572   1.248  0.00  0.00    +0.000 A 
BRANCH   8  12
ATOM     12  C   UNL     1      -2.705   2.941   4.742  0.00  0.00    +0.000 C 
ATOM     13  O   UNL     1      -3.585   2.270   5.243  0.00  0.00    +0.000 OA
ATOM     14  O   UNL     1      -2.360   4.120   5.296  0.00  0.00    +0.000 OA
ENDBRANCH   8  12
ENDBRANCH   5  11
ENDBRANCH   2   5
ENDBRANCH   1   2
BRANCH   1  15
ATOM     15  C   UNL     1      -0.829   1.643  -3.628  0.00  0.00    +0.000 C 
BRANCH  15  16
ATOM     16  N   UNL     1      -0.171   1.188  -4.855  0.00  0.00    +0.000 N 
ATOM     17  H   UNL     1       0.677   0.606  -4.799  0.00  0.00    +0.000 HD
BRANCH  16  18
ATOM     18  C   UNL     1      -0.692   1.545  -6.101  0.00  0.00    +0.000 A 
ATOM     19  C   UNL     1      -1.838   2.326  -6.178  0.00  0.00    +0.000 A 
ATOM     20  C   UNL     1      -2.348   2.681  -7.411  0.00  0.00    +0.000 A 
ATOM     21  C   UNL     1      -1.725   2.252  -8.568  0.00  0.00    +0.000 A 
ATOM     22  C   UNL     1      -0.586   1.470  -8.495  0.00  0.00    +0.000 A 
ATOM     23  C   UNL     1      -0.068   1.115  -7.265  0.00  0.00    +0.000 A 
BRANCH  21  24
ATOM     24  N   UNL     1      -2.277   2.630  -9.888  0.00  0.00    +0.000 N 
ATOM     25  O   UNL     1      -1.729   2.253 -10.909  0.00  0.00    +0.000 OA
ATOM     26  O   UNL     1      -3.279   3.319  -9.954  0.00  0.00    +0.000 OA
ENDBRANCH  21  24
ENDBRANCH  16  18
ENDBRANCH  15  16
ENDBRANCH   1  15
TORSDOF 8
ENDMDL
MODEL       40
REMARK  Name = ZINC05274011
REMARK  10 active torsions:
REMARK  status: ('A' for Active; 'I' for Inactive)
REMARK    1  A    between atoms: CA_3  and  C_20
REMARK    2  A    between atoms: C_6  and  C_8
REMARK    3  A    between atoms: C_8  and  C_9
REMARK    4  A    between atoms: C_8  and  N_22
REMARK    5  A    between atoms: C_9  and  C_10
REMARK    6  A    between atoms: C_10  and  C_11
REMARK    7  A    between atoms: C_11  and  C_12
REMARK    8  A    between atoms: C_12  and  N_13
REMARK    9  A    between atoms: N_13  and  C_14
REMARK   10  A    between atoms: C_14  and  C_16
REMARK                            x       y       z     vdW  Elec       q    Type
REMARK                         _______ _______ _______ _____ _____    ______ ____
ROOT
ATOM      1  C   UNK A   1       0.035   1.059   5.005  0.00  0.00    +0.000 C 
ENDROOT
BRANCH   1   7
ATOM      2  CG  PRO A   2      -3.814  -0.563   6.337  0.00  0.00    +0.000 C 
ATOM      3  CB  PRO A   2      -3.753  -0.103   7.818  0.00  0.00    +0.000 C 
ATOM      4  CA  PRO A   2      -2.640   0.966   7.804  0.00  0.00    +0.000 C 
ATOM      5  N   PRO A   2      -1.804   0.711   6.622  0.00  0.00    +0.000 N 
ATOM      6  CD  PRO A   2      -2.324  -0.480   5.924  0.00  0.00    +0.000 C 
ATOM      7  C   UNK A   1      -0.737   1.440   6.242  0.00  0.00    +0.000 C 
ATOM      8  O   UNK A   1      -0.398   2.404   6.895  0.00  0.00    +0.000 OA
BRANCH   4   9
ATOM      9  C   PRO A   2      -1.805   0.856   9.054  0.00  0.00    +0.000 C 
ATOM     10  O   PRO A   2      -0.629   0.592   8.975  0.00  0.00    +0.000 OA
ATOM     11  OXT PRO A   2      -2.369   1.053  10.257  0.00  0.00    +0.000 OA
ENDBRANCH   4   9
ENDBRANCH   1   7
BRANCH   1  12
ATOM     12  N   UNK A   1       1.382   1.655   5.035  0.00  0.00    +0.000 N 
ATOM     13  H   UNK A   1       1.882   1.316   5.870  0.00  0.00    +0.000 HD
ATOM     14  H   UNK A   1       1.296   2.680   5.084  0.00  0.00    +0.000 HD
ATOM     15  H   UNK A   1       1.903   1.389   4.187  0.00  0.00    +0.000 HD
ENDBRANCH   1  12
BRANCH   1  16
ATOM     16  C   UNK A   1      -0.705   1.566   3.765  0.00  0.00    +0.000 C 
BRANCH  16  17
ATOM     17  C   UNK A   1       0.011   1.072   2.506  0.00  0.00    +0.000 C 
BRANCH  17  18
ATOM     18  C   UNK A   1      -0.729   1.579   1.267  0.00  0.00    +0.000 C 
BRANCH  18  19
ATOM     19  C   UNK A   1      -0.013   1.086   0.008  0.00  0.00    +0.000 C 
BRANCH  19  20
ATOM     20  N   UNK A   1      -0.721   1.571  -1.179  0.00  0.00    +0.000 NA
BRANCH  20  21
ATOM     21  C   UNK A   1      -0.268   1.258  -2.409  0.00  0.00    +0.000 C 
ATOM     22  O   UNK A   1       0.726   0.575  -2.534  0.00  0.00    +0.000 OA
BRANCH  21  23
ATOM     23  C   UNK A   1      -0.997   1.758  -3.630  0.00  0.00    +0.000 C 
ATOM     24  F   UNK A   1      -0.342   1.306  -4.781  0.00  0.00    +0.000 F 
ATOM     25  F   UNK A   1      -2.309   1.273  -3.620  0.00  0.00    +0.000 F 
ATOM     26  F   UNK A   1      -1.016   3.156  -3.622  0.00  0.00    +0.000 F 
ENDBRANCH  21  23
ENDBRANCH  20  21
ENDBRANCH  19  20
ENDBRANCH  18  19
ENDBRANCH  17  18
ENDBRANCH  16  17
ENDBRANCH   1  16
TORSDOF 10
ENDMDL
MODEL       41
REMARK  Name = ZINC04189752
REMARK  9 active torsions:
REMARK  status: ('A' for Active; 'I' for Inactive)
REMARK    1  A    between atoms: C_1  and  O_2
REMARK    2  A    between atoms: O_2  and  C_3
REMARK    3  A    between atoms: C_8  and  N_9
REMARK    4  A    between atoms: C_10  and  C_12
REMARK    5  A    between atoms: C_12  and  C_13
REMARK    6  A    between atoms: C_13  and  C_14
REMARK    7  A    between atoms: C_13  and  N_24
REMARK    8  A    between atoms: C_16  and  C_17
REMARK    9  A    between atoms: C_16  and  N_24
REMARK                            x       y       z     vdW  Elec       q    Type
REMARK                         _______ _______ _______ _____ _____    ______ ____
ROOT
ATOM      1  C   UNK A   1      -0.459   7.239  -1.381  0.00  0.00    +0.000 C 
ENDROOT
BRANCH   1   2
ATOM      2  N   UNK A   1      -0.383   5.766  -1.356  0.00  0.00    +0.000 N 
ATOM      3  H   UNK A   1      -1.248   5.372  -1.754  0.00  0.00    +0.000 HD
ATOM      4  H   UNK A   1       0.420   5.455  -1.921  0.00  0.00    +0.000 HD
BRANCH   2   5
ATOM      5  C   UNK A   0      -0.221   5.285   0.029  0.00  0.00    +0.000 C 
BRANCH   5   6
ATOM      6  C   UNK A   0      -0.146   3.780   0.023  0.00  0.00    +0.000 A 
ATOM      7  C   UNK A   0       1.088   3.157   0.006  0.00  0.00    +0.000 A 
ATOM      8  C   UNK A   0       1.145   1.772   0.002  0.00  0.00    +0.000 A 
ATOM      9  C   UNK A   0      -0.046   1.062   0.015  0.00  0.00    +0.000 A 
ATOM     10  C   UNK A   0      -1.242   1.753   0.026  0.00  0.00    +0.000 A 
ATOM     11  N   UNK A   0      -1.259   3.072   0.036  0.00  0.00    +0.000 NA
ENDBRANCH   5   6
ENDBRANCH   2   5
ENDBRANCH   1   2
BRANCH   1  12
ATOM     12  C   UNK A   1       0.934   7.814  -1.410  0.00  0.00    +0.000 C 
ATOM     13  O   UNK A   1       1.891   7.077  -1.404  0.00  0.00    +0.000 OA
ATOM     14  O   UNK A   1       1.110   9.144  -1.444  0.00  0.00    +0.000 OA
ENDBRANCH   1  12
BRANCH   1  15
ATOM     15  C   UNK A   1      -1.220   7.681  -2.633  0.00  0.00    +0.000 C 
BRANCH  15  17
ATOM     16  N   UNK A   1      -3.512   7.486  -3.543  0.00  0.00    +0.000 N 
ATOM     17  C   UNK A   1      -2.648   7.209  -2.545  0.00  0.00    +0.000 C 
ATOM     18  O   UNK A   1      -3.021   6.581  -1.577  0.00  0.00    +0.000 OA
ATOM     19  H   UNK A   1      -3.220   8.090  -4.324  0.00  0.00    +0.000 HD
BRANCH  16  25
ATOM     20  C   UNK A   1      -5.839   7.586  -4.202  0.00  0.00    +0.000 A 
ATOM     21  C   UNK A   1      -7.117   7.052  -4.174  0.00  0.00    +0.000 A 
ATOM     22  C   UNK A   1      -7.365   5.890  -3.467  0.00  0.00    +0.000 A 
ATOM     23  C   UNK A   1      -6.340   5.258  -2.787  0.00  0.00    +0.000 A 
ATOM     24  C   UNK A   1      -5.062   5.781  -2.815  0.00  0.00    +0.000 A 
ATOM     25  C   UNK A   1      -4.806   6.950  -3.517  0.00  0.00    +0.000 A 
BRANCH  20  27
ATOM     26  C   UNK A   1      -6.700   9.326  -5.576  0.00  0.00    +0.000 C 
ATOM     27  O   UNK A   1      -5.593   8.728  -4.898  0.00  0.00    +0.000 OA
ENDBRANCH  20  27
ENDBRANCH  16  25
ENDBRANCH  15  17
ENDBRANCH   1  15
TORSDOF 8
ENDMDL
MODEL       42
REMARK  Name = ZINC05192440
REMARK  9 active torsions:
REMARK  status: ('A' for Active; 'I' for Inactive)
REMARK    1  A    between atoms: C_4  and  C_6
REMARK    2  A    between atoms: C_6  and  C_7
REMARK    3  A    between atoms: C_7  and  C_8
REMARK    4  A    between atoms: C_8  and  C_9
REMARK    5  A    between atoms: C_9  and  C_10
REMARK    6  A    between atoms: N_12  and  N_13
REMARK    7  A    between atoms: C_14  and  C_16
REMARK    8  A    between atoms: C_16  and  O_17
REMARK    9  A    between atoms: O_17  and  N_18
REMARK                            x       y       z     vdW  Elec       q    Type
REMARK                         _______ _______ _______ _____ _____    ______ ____
ROOT
ATOM      1  C   UNL     1       2.826   5.309  -1.696  0.00  0.00    +0.000 C 
ENDROOT
BRANCH   1   2
ATOM      2  C   UNL     1       4.194   5.985  -1.583  0.00  0.00    +0.000 C 
BRANCH   2   3
ATOM      3  C   UNL     1       4.230   7.200  -2.474  0.00  0.00    +0.000 C 
ATOM      4  O   UNL     1       3.257   7.496  -3.134  0.00  0.00    +0.000 OA
ATOM      5  N   UNL     1       5.343   7.957  -2.537  0.00  0.00    +0.000 N 
ATOM      6  H   UNL     1       6.169   7.705  -1.976  0.00  0.00    +0.000 HD
BRANCH   5   7
ATOM      7  N   UNL     1       5.376   9.086  -3.365  0.00  0.00    +0.000 N 
ATOM      8  C   UNL     1       6.489   9.844  -3.428  0.00  0.00    +0.000 C 
ATOM      9  O   UNL     1       7.462   9.547  -2.768  0.00  0.00    +0.000 OA
ATOM     10  H   UNL     1       4.549   9.338  -3.926  0.00  0.00    +0.000 HD
BRANCH   8  11
ATOM     11  C   UNL     1       6.524  11.059  -4.319  0.00  0.00    +0.000 C 
BRANCH  11  12
ATOM     12  O   UNL     1       7.802  11.690  -4.214  0.00  0.00    +0.000 OA
BRANCH  12  13
ATOM     13  N   UNL     1       7.945  12.886  -5.043  0.00  0.00    +0.000 NA
ATOM     14  H   UNL     1       7.208  13.549  -4.761  0.00  0.00    +0.000 HD
ATOM     15  H   UNL     1       7.777  12.609  -6.021  0.00  0.00    +0.000 HD
ENDBRANCH  12  13
ENDBRANCH  11  12
ENDBRANCH   8  11
ENDBRANCH   5   7
ENDBRANCH   2   3
ENDBRANCH   1   2
BRANCH   1  16
ATOM     16  C   UNL     1       2.791   4.076  -0.791  0.00  0.00    +0.000 C 
BRANCH  16  17
ATOM     17  C   UNL     1       1.422   3.400  -0.904  0.00  0.00    +0.000 C 
BRANCH  17  21
ATOM     18  C   UNL     1       1.424  -0.605  -0.015  0.00  0.00    +0.000 C 
ATOM     19  C   UNL     1       0.002  -0.004   0.002  0.00  0.00    +0.000 C 
ATOM     20  C   UNL     1      -0.019   1.527   0.010  0.00  0.00    +0.000 C 
ATOM     21  C   UNL     1       1.387   2.167   0.001  0.00  0.00    +0.000 C 
ATOM     22  S   UNL     1       2.405   0.798  -0.704  0.00  0.00    +0.000 S 
ATOM     23  N   UNL     1      -0.717   1.882  -1.235  0.00  0.00    +0.000 N 
ATOM     24  C   UNL     1      -1.057   0.758  -1.880  0.00  0.00    +0.000 C 
ATOM     25  O   UNL     1      -1.649   0.756  -2.943  0.00  0.00    +0.000 OA
ATOM     26  N   UNL     1      -0.687  -0.364  -1.248  0.00  0.00    +0.000 N 
ATOM     27  H   UNL     1      -0.913   2.840  -1.559  0.00  0.00    +0.000 HD
ATOM     28  H   UNL     1      -0.857  -1.323  -1.582  0.00  0.00    +0.000 HD
ENDBRANCH  17  21
ENDBRANCH  16  17
ENDBRANCH   1  16
TORSDOF 9
ENDMDL
MODEL       43
REMARK  Name = ZINC26212890
REMARK  8 active torsions:
REMARK  status: ('A' for Active; 'I' for Inactive)
REMARK    1  A    between atoms: C_3  and  C_6
REMARK    2  A    between atoms: N_8  and  C_9
REMARK    3  A    between atoms: C_9  and  C_10
REMARK    4  A    between atoms: N_12  and  C_13
REMARK    5  A    between atoms: C_13  and  C_14
REMARK    6  A    between atoms: C_14  and  O_16
REMARK    7  A    between atoms: O_16  and  C_17
REMARK    8  A    between atoms: C_17  and  C_18
REMARK                            x       y       z     vdW  Elec       q    Type
REMARK                         _______ _______ _______ _____ _____    ______ ____
ROOT
ATOM      1  C   UNL     1       3.554   2.182  -0.020  0.00  0.00    +0.000 C 
ATOM      2  O   UNL     1       3.316   3.371  -0.011  0.00  0.00    +0.000 OA
ATOM      3  N   UNL     1       4.831   1.750  -0.035  0.00  0.00    +0.000 N 
ATOM      4  H   UNL     1       5.032   0.740  -0.042  0.00  0.00    +0.000 HD
ENDROOT
BRANCH   1   5
ATOM      5  C   UNL     1       2.422   1.187  -0.015  0.00  0.00    +0.000 C 
BRANCH   5   8
ATOM      6  C   UNL     1      -0.014   1.213   0.009  0.00  0.00    +0.000 C 
ATOM      7  O   UNL     1       0.002  -0.004   0.002  0.00  0.00    +0.000 OA
ATOM      8  N   UNL     1       1.143   1.903   0.001  0.00  0.00    +0.000 N 
ATOM      9  H   UNL     1       1.129   2.932   0.007  0.00  0.00    +0.000 HD
BRANCH   6  12
ATOM     10  C   UNL     1      -3.464   2.407   0.032  0.00  0.00    +0.000 A 
ATOM     11  C   UNL     1      -2.534   1.356   0.021  0.00  0.00    +0.000 A 
ATOM     12  C   UNL     1      -1.294   1.929   0.019  0.00  0.00    +0.000 A 
ATOM     13  O   UNL     1      -1.453   3.268   0.033  0.00  0.00    +0.000 OA
ATOM     14  C   UNL     1      -2.760   3.561   0.036  0.00  0.00    +0.000 A 
ENDBRANCH   6  12
ENDBRANCH   5   8
ENDBRANCH   1   5
BRANCH   3  15
ATOM     15  C   UNL     1       5.931   2.717  -0.040  0.00  0.00    +0.000 C 
BRANCH  15  16
ATOM     16  C   UNL     1       7.246   1.982  -0.057  0.00  0.00    +0.000 C 
ATOM     17  O   UNL     1       7.263   0.773  -0.063  0.00  0.00    +0.000 OA
BRANCH  16  18
ATOM     18  O   UNL     1       8.399   2.668  -0.064  0.00  0.00    +0.000 OA
BRANCH  18  19
ATOM     19  C   UNL     1       9.628   1.894  -0.080  0.00  0.00    +0.000 C 
BRANCH  19  20
ATOM     20  C   UNL     1      10.810   2.829  -0.086  0.00  0.00    +0.000 C 
ATOM     21  O   UNL     1      10.635   4.028  -0.078  0.00  0.00    +0.000 OA
ATOM     22  N   UNL     1      12.062   2.330  -0.101  0.00  0.00    +0.000 N 
ATOM     23  C   UNL     1      13.120   3.166  -0.106  0.00  0.00    +0.000 C 
ATOM     24  O   UNL     1      12.944   4.368  -0.098  0.00  0.00    +0.000 OA
ATOM     25  N   UNL     1      14.372   2.668  -0.121  0.00  0.00    +0.000 N 
ATOM     26  H   UNL     1      12.211   1.311  -0.107  0.00  0.00    +0.000 HD
ATOM     27  H   UNL     1      14.521   1.649  -0.128  0.00  0.00    +0.000 HD
ATOM     28  H   UNL     1      15.180   3.306  -0.125  0.00  0.00    +0.000 HD
ENDBRANCH  19  20
ENDBRANCH  18  19
ENDBRANCH  16  18
ENDBRANCH  15  16
ENDBRANCH   3  15
TORSDOF 8
ENDMDL
MODEL       44
REMARK  Name = ZINC27751478
REMARK  10 active torsions:
REMARK  status: ('A' for Active; 'I' for Inactive)
REMARK    1  A    between atoms: C_1  and  C_2
REMARK    2  A    between atoms: C_2  and  C_3
REMARK    3  A    between atoms: C_3  and  C_23
REMARK    4  A    between atoms: N_6  and  N_10
REMARK    5  A    between atoms: C_11  and  C_13
REMARK    6  A    between atoms: C_13  and  O_14
REMARK    7  A    between atoms: O_14  and  C_15
REMARK    8  A    between atoms: C_15  and  C_17
REMARK    9  A    between atoms: C_17  and  C_18
REMARK   10  A    between atoms: C_18  and  N_19
REMARK                            x       y       z     vdW  Elec       q    Type
REMARK                         _______ _______ _______ _____ _____    ______ ____
ROOT
ATOM      1  N   UNL     1      -0.804   1.637   6.076  0.00  0.00    +0.000 N 
ATOM      2  C   UNL     1      -0.298   1.288   4.876  0.00  0.00    +0.000 C 
ATOM      3  O   UNL     1       0.700   0.602   4.815  0.00  0.00    +0.000 OA
ATOM      4  H   UNL     1      -1.652   2.219   6.128  0.00  0.00    +0.000 HD
ENDROOT
BRANCH   1   8
ATOM      5  C   UNL     1       0.346   0.108   9.185  0.00  0.00    +0.000 C 
ATOM      6  C   UNL     1      -0.649   0.228   8.049  0.00  0.00    +0.000 C 
ATOM      7  O   UNL     1      -1.660  -0.422   7.888  0.00  0.00    +0.000 OA
ATOM      8  N   UNL     1      -0.176   1.207   7.252  0.00  0.00    +0.000 N 
ATOM      9  C   UNL     1       0.964   1.722   7.727  0.00  0.00    +0.000 C 
ATOM     10  O   UNL     1       1.577   2.619   7.184  0.00  0.00    +0.000 OA
ATOM     11  N   UNL     1       1.355   1.134   8.872  0.00  0.00    +0.000 NA
ATOM     12  C   UNL     1      -0.332   0.410  10.523  0.00  0.00    +0.000 C 
BRANCH   5  14
ATOM     13  C   UNL     1       2.054  -1.336  10.299  0.00  0.00    +0.000 C 
ATOM     14  C   UNL     1       0.982  -1.284   9.209  0.00  0.00    +0.000 C 
ENDBRANCH   5  14
ENDBRANCH   1   8
BRANCH   2  15
ATOM     15  C   UNL     1      -0.974   1.750   3.611  0.00  0.00    +0.000 C 
BRANCH  15  16
ATOM     16  O   UNL     1      -0.243   1.247   2.461  0.00  0.00    +0.000 OA
BRANCH  16  17
ATOM     17  C   UNL     1      -0.718   1.572   1.248  0.00  0.00    +0.000 C 
ATOM     18  O   UNL     1      -1.711   2.254   1.150  0.00  0.00    +0.000 OA
BRANCH  17  19
ATOM     19  C   UNL     1      -0.013   1.086   0.008  0.00  0.00    +0.000 C 
BRANCH  19  20
ATOM     20  C   UNL     1      -0.753   1.593  -1.232  0.00  0.00    +0.000 C 
BRANCH  20  21
ATOM     21  N   UNL     1      -0.067   1.120  -2.437  0.00  0.00    +0.000 N 
ATOM     22  C   UNL     1      -0.543   1.446  -3.655  0.00  0.00    +0.000 C 
ATOM     23  O   UNL     1      -1.542   2.132  -3.753  0.00  0.00    +0.000 OA
ATOM     24  N   UNL     1       0.087   1.011  -4.764  0.00  0.00    +0.000 N 
ATOM     25  H   UNL     1       0.779   0.539  -2.353  0.00  0.00    +0.000 HD
ATOM     26  H   UNL     1       0.934   0.430  -4.680  0.00  0.00    +0.000 HD
ATOM     27  H   UNL     1      -0.277   1.260  -5.694  0.00  0.00    +0.000 HD
ENDBRANCH  20  21
ENDBRANCH  19  20
ENDBRANCH  17  19
ENDBRANCH  16  17
ENDBRANCH  15  16
ENDBRANCH   2  15
TORSDOF 8
ENDMDL
MODEL       45
REMARK  Name = ZINC06030283
REMARK  15 active torsions:
REMARK  status: ('A' for Active; 'I' for Inactive)
REMARK    1  A    between atoms: C_1  and  C_2
REMARK    2  A    between atoms: C_2  and  C_3
REMARK    3  A    between atoms: C_2  and  O_22
REMARK    4  A    between atoms: C_3  and  C_4
REMARK    5  A    between atoms: C_3  and  C_6
REMARK    6  A    between atoms: C_3  and  O_21
REMARK    7  A    between atoms: C_6  and  C_7
REMARK    8  A    between atoms: C_6  and  O_9
REMARK    9  A    between atoms: O_9  and  C_10
REMARK   10  A    between atoms: C_11  and  N_23
REMARK   11  A    between atoms: C_12  and  O_19
REMARK   12  A    between atoms: C_13  and  O_18
REMARK   13  A    between atoms: C_14  and  C_16
REMARK   14  A    between atoms: C_16  and  O_17
REMARK   15  A    between atoms: C_20  and  N_23
REMARK                            x       y       z     vdW  Elec       q    Type
REMARK                         _______ _______ _______ _____ _____    ______ ____
ROOT
ATOM      1  C   UNL     1       1.170   3.535  -3.877  0.00  0.00    +0.000 C 
ATOM      2  C   UNL     1       1.391   5.049  -3.830  0.00  0.00    +0.000 C 
ATOM      3  C   UNL     1       1.266   5.620  -5.246  0.00  0.00    +0.000 C 
ATOM      4  C   UNL     1      -0.108   5.250  -5.814  0.00  0.00    +0.000 C 
ATOM      5  C   UNL     1      -0.271   3.728  -5.784  0.00  0.00    +0.000 C 
ATOM      6  O   UNL     1      -0.112   3.259  -4.444  0.00  0.00    +0.000 OA
ENDROOT
BRANCH   2   8
ATOM      7  C   UNL     1       0.801   5.624  -1.554  0.00  0.00    +0.000 C 
ATOM      8  N   UNL     1       0.371   5.670  -2.964  0.00  0.00    +0.000 N 
ATOM      9  H   UNL     1      -0.519   5.162  -3.066  0.00  0.00    +0.000 HD
ATOM     10  H   UNL     1       0.234   6.651  -3.247  0.00  0.00    +0.000 HD
ENDBRANCH   2   8
BRANCH   3  11
ATOM     11  O   UNL     1       1.397   7.042  -5.201  0.00  0.00    +0.000 OA
ATOM     12  H   UNL     1       2.283   7.280  -4.827  0.00  0.00    +0.000 HD
ENDBRANCH   3  11
BRANCH   4  13
ATOM     13  O   UNL     1      -1.131   5.855  -5.020  0.00  0.00    +0.000 OA
ATOM     14  H   UNL     1      -1.023   6.839  -5.035  0.00  0.00    +0.000 HD
ENDBRANCH   4  13
BRANCH   1  15
ATOM     15  O   UNL     1       1.231   3.003  -2.552  0.00  0.00    +0.000 OA
BRANCH  15  16
ATOM     16  C   UNL     1       1.262   1.575  -2.500  0.00  0.00    +0.000 C 
BRANCH  16  17
ATOM     17  C   UNL     1      -0.146   1.044  -2.429  0.00  0.00    +0.000 C 
ATOM     18  O   UNL     1      -1.080   1.808  -2.424  0.00  0.00    +0.000 OA
ENDBRANCH  16  17
BRANCH  16  19
ATOM     19  C   UNL     1       2.040   1.127  -1.261  0.00  0.00    +0.000 C 
BRANCH  19  20
ATOM     20  C   UNL     1       3.408   1.759  -1.270  0.00  0.00    +0.000 C 
ATOM     21  O   UNL     1       3.746   2.482  -0.364  0.00  0.00    +0.000 OA
ENDBRANCH  19  20
BRANCH  19  22
ATOM     22  O   UNL     1       2.172  -0.295  -1.270  0.00  0.00    +0.000 OA
ATOM     23  H   UNL     1       1.274  -0.711  -1.263  0.00  0.00    +0.000 HD
ENDBRANCH  19  22
BRANCH  19  25
ATOM     24  C   UNL     1       2.064   1.114   1.238  0.00  0.00    +0.000 C 
ATOM     25  C   UNL     1       1.286   1.562  -0.002  0.00  0.00    +0.000 C 
BRANCH  25  26
ATOM     26  O   UNL     1      -0.011   0.963   0.007  0.00  0.00    +0.000 OA
ATOM     27  H   UNL     1      -0.499   1.244   0.821  0.00  0.00    +0.000 HD
ENDBRANCH  25  26
ENDBRANCH  19  25
ENDBRANCH  16  19
ENDBRANCH  15  16
ENDBRANCH   1  15
BRANCH   5  28
ATOM     28  C   UNL     1      -1.665   3.354  -6.294  0.00  0.00    +0.000 C 
BRANCH  28  29
ATOM     29  O   UNL     1      -1.776   1.932  -6.377  0.00  0.00    +0.000 OA
ATOM     30  H   UNL     1      -1.636   1.536  -5.480  0.00  0.00    +0.000 HD
ENDBRANCH  28  29
ENDBRANCH   5  28
TORSDOF 13
ENDMDL
MODEL       46
REMARK  Name = ZINC17005558
REMARK  14 active torsions:
REMARK  status: ('A' for Active; 'I' for Inactive)
REMARK    1  A    between atoms: C_1  and  C_2
REMARK    2  A    between atoms: C_2  and  C_3
REMARK    3  A    between atoms: C_2  and  C_4
REMARK    4  A    between atoms: C_4  and  S_5
REMARK    5  A    between atoms: S_5  and  C_6
REMARK    6  A    between atoms: C_6  and  C_7
REMARK    7  A    between atoms: C_6  and  N_15
REMARK    8  A    between atoms: C_7  and  C_8
REMARK    9  A    between atoms: C_7  and  O_14
REMARK   10  A    between atoms: C_8  and  C_9
REMARK   11  A    between atoms: C_8  and  O_13
REMARK   12  A    between atoms: C_9  and  C_10
REMARK   13  A    between atoms: C_9  and  O_12
REMARK   14  A    between atoms: C_10  and  O_11
REMARK                            x       y       z     vdW  Elec       q    Type
REMARK                         _______ _______ _______ _____ _____    ______ ____
ROOT
ATOM      1  C   UNL     1       3.915   2.063  -0.150  0.00  0.00    +0.000 C 
ENDROOT
BRANCH   1   2
ATOM      2  N   UNL     1       2.632   1.387  -0.354  0.00  0.00    +0.000 N 
ATOM      3  C   UNL     1       2.559   0.029  -0.262  0.00  0.00    +0.000 A 
ATOM      4  C   UNL     1       1.367  -0.584  -0.453  0.00  0.00    +0.000 A 
ATOM      5  C   UNL     1       0.233   0.202  -0.743  0.00  0.00    +0.000 A 
ATOM      6  N   UNL     1       0.352   1.521  -0.823  0.00  0.00    +0.000 NA
ATOM      7  C   UNL     1       1.531   2.110  -0.632  0.00  0.00    +0.000 A 
ATOM      8  O   UNL     1       1.615   3.324  -0.712  0.00  0.00    +0.000 OA
ATOM      9  N   UNL     1      -0.991  -0.395  -0.942  0.00  0.00    +0.000 N 
ATOM     10  H   UNL     1      -1.077  -1.419  -0.878  0.00  0.00    +0.000 HD
ATOM     11  H   UNL     1      -1.818   0.180  -1.154  0.00  0.00    +0.000 HD
ENDBRANCH   1   2
BRANCH   1  12
ATOM     12  C   UNL     1       4.969   1.446  -1.071  0.00  0.00    +0.000 C 
BRANCH  12  13
ATOM     13  O   UNL     1       4.561   1.600  -2.432  0.00  0.00    +0.000 OA
ATOM     14  H   UNL     1       4.464   2.563  -2.641  0.00  0.00    +0.000 HD
ENDBRANCH  12  13
BRANCH  12  15
ATOM     15  C   UNL     1       6.310   2.152  -0.858  0.00  0.00    +0.000 C 
BRANCH  15  16
ATOM     16  O   UNL     1       6.718   1.998   0.503  0.00  0.00    +0.000 OA
ATOM     17  H   UNL     1       6.816   1.035   0.712  0.00  0.00    +0.000 HD
ENDBRANCH  15  16
BRANCH  15  18
ATOM     18  C   UNL     1       7.364   1.535  -1.780  0.00  0.00    +0.000 C 
BRANCH  18  19
ATOM     19  O   UNL     1       6.955   1.690  -3.140  0.00  0.00    +0.000 OA
ATOM     20  H   UNL     1       6.858   2.652  -3.349  0.00  0.00    +0.000 HD
ENDBRANCH  18  19
BRANCH  18  21
ATOM     21  C   UNL     1       8.704   2.241  -1.566  0.00  0.00    +0.000 C 
BRANCH  21  22
ATOM     22  O   UNL     1       9.714   1.591  -2.340  0.00  0.00    +0.000 OA
ATOM     23  H   UNL     1       9.471   1.628  -3.299  0.00  0.00    +0.000 HD
ENDBRANCH  21  22
ENDBRANCH  18  21
ENDBRANCH  15  18
ENDBRANCH  12  15
ENDBRANCH   1  12
BRANCH   1  24
ATOM     24  S   UNL     1       4.434   1.867   1.578  0.00  0.00    +0.000 S 
BRANCH  24  25
ATOM     25  C   UNL     1       4.383   0.075   1.851  0.00  0.00    +0.000 C 
BRANCH  25  27
ATOM     26  C   UNL     1       4.030   0.352   4.309  0.00  0.00    +0.000 C 
ATOM     27  C   UNL     1       4.944  -0.246   3.237  0.00  0.00    +0.000 C 
ATOM     28  C   UNL     1       5.017  -1.764   3.419  0.00  0.00    +0.000 C 
ENDBRANCH  25  27
ENDBRANCH  24  25
ENDBRANCH   1  24
TORSDOF 12
ENDMDL
MODEL       47
REMARK  Name = ZINC31476655
REMARK  9 active torsions:
REMARK  status: ('A' for Active; 'I' for Inactive)
REMARK    1  A    between atoms: C_1  and  C_2
REMARK    2  A    between atoms: C_5  and  S_8
REMARK    3  A    between atoms: S_8  and  N_11
REMARK    4  A    between atoms: N_11  and  C_12
REMARK    5  A    between atoms: C_12  and  C_13
REMARK    6  A    between atoms: C_12  and  C_20
REMARK    7  A    between atoms: C_13  and  C_14
REMARK    8  A    between atoms: C_14  and  C_15
REMARK    9  A    between atoms: C_15  and  N_16
REMARK                            x       y       z     vdW  Elec       q    Type
REMARK                         _______ _______ _______ _____ _____    ______ ____
ROOT
ATOM      1  C   UNL     1      -1.330   3.368  -0.365  0.00  0.00    +0.000 C 
ENDROOT
BRANCH   1   2
ATOM      2  C   UNL     1      -1.417   1.865  -0.446  0.00  0.00    +0.000 C 
ATOM      3  O   UNL     1      -2.496   1.326  -0.570  0.00  0.00    +0.000 OA
ATOM      4  N   UNL     1      -0.295   1.121  -0.379  0.00  0.00    +0.000 N 
ATOM      5  H   UNL     1       0.621   1.579  -0.273  0.00  0.00    +0.000 HD
ATOM      6  H   UNL     1      -0.354   0.094  -0.434  0.00  0.00    +0.000 HD
ENDBRANCH   1   2
BRANCH   1   7
ATOM      7  N   UNL     1      -2.675   3.940  -0.461  0.00  0.00    +0.000 NA
ATOM      8  H   UNL     1      -3.259   4.027   0.384  0.00  0.00    +0.000 HD
BRANCH   7   9
ATOM      9  S   UNL     1      -3.258   4.447  -1.926  0.00  0.00    +0.000 S 
ATOM     10  O   UNL     1      -4.578   4.920  -1.696  0.00  0.00    +0.000 OA
ATOM     11  O   UNL     1      -2.247   5.260  -2.505  0.00  0.00    +0.000 OA
BRANCH   9  16
ATOM     12  C   UNL     1      -3.762  -0.437  -5.433  0.00  0.00    +0.000 C 
ATOM     13  C   UNL     1      -3.636   0.783  -4.557  0.00  0.00    +0.000 A 
ATOM     14  C   UNL     1      -4.699   1.178  -3.766  0.00  0.00    +0.000 A 
ATOM     15  C   UNL     1      -4.583   2.297  -2.962  0.00  0.00    +0.000 A 
ATOM     16  C   UNL     1      -3.405   3.020  -2.950  0.00  0.00    +0.000 A 
ATOM     17  C   UNL     1      -2.344   2.628  -3.744  0.00  0.00    +0.000 A 
ATOM     18  C   UNL     1      -2.458   1.506  -4.544  0.00  0.00    +0.000 A 
ENDBRANCH   9  16
ENDBRANCH   7   9
ENDBRANCH   1   7
BRANCH   1  19
ATOM     19  C   UNL     1      -0.698   3.771   0.968  0.00  0.00    +0.000 C 
BRANCH  19  20
ATOM     20  C   UNL     1      -0.495   5.288   0.998  0.00  0.00    +0.000 C 
BRANCH  20  21
ATOM     21  C   UNL     1       0.138   5.691   2.331  0.00  0.00    +0.000 C 
BRANCH  21  22
ATOM     22  N   UNL     1       0.331   7.143   2.360  0.00  0.00    +0.000 N 
ATOM     23  C   UNL     1      -0.300   7.868   3.240  0.00  0.00    +0.000 C 
ATOM     24  N   UNL     1      -1.046   7.260   4.223  0.00  0.00    +0.000 N 
ATOM     25  N   UNL     1      -0.221   9.239   3.186  0.00  0.00    +0.000 N 
ATOM     26  H   UNL     1       0.967   7.592   1.684  0.00  0.00    +0.000 HD
ATOM     27  H   UNL     1      -1.105   6.233   4.263  0.00  0.00    +0.000 HD
ATOM     28  H   UNL     1      -1.545   7.833   4.919  0.00  0.00    +0.000 HD
ATOM     29  H   UNL     1       0.338   9.694   2.450  0.00  0.00    +0.000 HD
ATOM     30  H   UNL     1      -0.720   9.812   3.882  0.00  0.00    +0.000 HD
ENDBRANCH  21  22
ENDBRANCH  20  21
ENDBRANCH  19  20
ENDBRANCH   1  19
TORSDOF 8
ENDMDL
MODEL       48
REMARK  Name = ZINC06091259
REMARK  15 active torsions:
REMARK  status: ('A' for Active; 'I' for Inactive)
REMARK    1  A    between atoms: C_2  and  C_10
REMARK    2  A    between atoms: C_4  and  O_9
REMARK    3  A    between atoms: C_5  and  O_8
REMARK    4  A    between atoms: C_6  and  O_7
REMARK    5  A    between atoms: C_10  and  O_12
REMARK    6  A    between atoms: O_12  and  C_13
REMARK    7  A    between atoms: C_13  and  C_14
REMARK    8  A    between atoms: C_14  and  C_15
REMARK    9  A    between atoms: C_14  and  O_23
REMARK   10  A    between atoms: C_15  and  C_16
REMARK   11  A    between atoms: C_15  and  O_22
REMARK   12  A    between atoms: C_16  and  C_17
REMARK   13  A    between atoms: C_16  and  O_21
REMARK   14  A    between atoms: C_17  and  C_18
REMARK   15  A    between atoms: C_17  and  O_20
REMARK                            x       y       z     vdW  Elec       q    Type
REMARK                         _______ _______ _______ _____ _____    ______ ____
ROOT
ATOM      1  O   UNL     1       1.914   1.062  -3.692  0.00  0.00    +0.000 OA
ENDROOT
BRANCH   1   2
ATOM      2  C   UNL     1       1.351   1.368  -4.877  0.00  0.00    +0.000 C 
ATOM      3  O   UNL     1       0.344   2.046  -4.914  0.00  0.00    +0.000 OA
BRANCH   2   5
ATOM      4  C   UNL     1       1.376   1.198  -7.360  0.00  0.00    +0.000 A 
ATOM      5  C   UNL     1       1.959   0.881  -6.130  0.00  0.00    +0.000 A 
ATOM      6  C   UNL     1       3.121   0.106  -6.089  0.00  0.00    +0.000 A 
ATOM      7  C   UNL     1       3.686  -0.353  -7.264  0.00  0.00    +0.000 A 
ATOM      8  C   UNL     1       3.103  -0.035  -8.488  0.00  0.00    +0.000 A 
ATOM      9  C   UNL     1       1.947   0.741  -8.532  0.00  0.00    +0.000 A 
BRANCH   9  10
ATOM     10  O   UNL     1       1.381   1.049  -9.729  0.00  0.00    +0.000 OA
ATOM     11  H   UNL     1       1.339   2.038  -9.745  0.00  0.00    +0.000 HD
ENDBRANCH   9  10
BRANCH   8  12
ATOM     12  O   UNL     1       3.663  -0.484  -9.643  0.00  0.00    +0.000 OA
ATOM     13  H   UNL     1       3.705  -1.468  -9.540  0.00  0.00    +0.000 HD
ENDBRANCH   8  12
BRANCH   7  14
ATOM     14  O   UNL     1       4.814  -1.110  -7.225  0.00  0.00    +0.000 OA
ATOM     15  H   UNL     1       4.586  -1.879  -6.645  0.00  0.00    +0.000 HD
ENDBRANCH   7  14
ENDBRANCH   2   5
ENDBRANCH   1   2
BRANCH   1  16
ATOM     16  C   UNL     1       1.262   1.575  -2.500  0.00  0.00    +0.000 C 
BRANCH  16  17
ATOM     17  C   UNL     1       2.040   1.127  -1.261  0.00  0.00    +0.000 C 
BRANCH  17  18
ATOM     18  O   UNL     1       3.337   1.726  -1.270  0.00  0.00    +0.000 OA
ATOM     19  H   UNL     1       3.247   2.712  -1.263  0.00  0.00    +0.000 HD
ENDBRANCH  17  18
BRANCH  17  20
ATOM     20  C   UNL     1       1.286   1.562  -0.002  0.00  0.00    +0.000 C 
BRANCH  20  21
ATOM     21  O   UNL     1      -0.011   0.963   0.007  0.00  0.00    +0.000 OA
ATOM     22  H   UNL     1       0.080  -0.023   0.001  0.00  0.00    +0.000 HD
ENDBRANCH  20  21
BRANCH  20  23
ATOM     23  C   UNL     1       2.064   1.114   1.238  0.00  0.00    +0.000 C 
BRANCH  23  24
ATOM     24  O   UNL     1       2.297  -0.294   1.171  0.00  0.00    +0.000 OA
ATOM     25  H   UNL     1       2.823  -0.504   0.358  0.00  0.00    +0.000 HD
ENDBRANCH  23  24
BRANCH  23  26
ATOM     26  C   UNL     1       1.251   1.437   2.493  0.00  0.00    +0.000 C 
BRANCH  26  27
ATOM     27  O   UNL     1      -0.044   0.844   2.388  0.00  0.00    +0.000 OA
ATOM     28  H   UNL     1       0.047  -0.138   2.299  0.00  0.00    +0.000 HD
ENDBRANCH  26  27
BRANCH  26  29
ATOM     29  C   UNL     1       1.959   0.887   3.705  0.00  0.00    +0.000 C 
ATOM     30  O   UNL     1       1.410   0.071   4.406  0.00  0.00    +0.000 OA
ENDBRANCH  26  29
ENDBRANCH  23  26
ENDBRANCH  20  23
ENDBRANCH  17  20
ENDBRANCH  16  17
ENDBRANCH   1  16
TORSDOF 15
ENDMDL
MODEL       49
REMARK  Name = ZINC31223831
REMARK  9 active torsions:
REMARK  status: ('A' for Active; 'I' for Inactive)
REMARK    1  A    between atoms: C_1  and  C_2
REMARK    2  A    between atoms: C_2  and  S_3
REMARK    3  A    between atoms: S_3  and  N_6
REMARK    4  A    between atoms: N_6  and  C_7
REMARK    5  A    between atoms: C_7  and  C_8
REMARK    6  A    between atoms: C_8  and  N_9
REMARK    7  A    between atoms: C_10  and  C_12
REMARK    8  A    between atoms: C_15  and  C_18
REMARK    9  A    between atoms: C_18  and  N_19
REMARK                            x       y       z     vdW  Elec       q    Type
REMARK                         _______ _______ _______ _____ _____    ______ ____
ROOT
ATOM      1  C   UNL     1      -4.502  -1.141   0.017  0.00  0.00    +0.000 A 
ATOM      2  C   UNL     1      -3.970  -0.686   1.224  0.00  0.00    +0.000 A 
ATOM      3  C   UNL     1      -2.933   0.225   1.217  0.00  0.00    +0.000 A 
ATOM      4  C   UNL     1      -2.422   0.686   0.017  0.00  0.00    +0.000 A 
ATOM      5  C   UNL     1      -2.949   0.242  -1.183  0.00  0.00    +0.000 A 
ATOM      6  C   UNL     1      -3.982  -0.672  -1.190  0.00  0.00    +0.000 A 
ENDROOT
BRANCH   1   8
ATOM      7  N   UNL     1      -6.125  -2.556  -1.150  0.00  0.00    +0.000 N 
ATOM      8  C   UNL     1      -5.612  -2.118   0.017  0.00  0.00    +0.000 C 
ATOM      9  O   UNL     1      -6.063  -2.525   1.070  0.00  0.00    +0.000 OA
ATOM     10  H   UNL     1      -5.742  -2.211  -2.042  0.00  0.00    +0.000 HD
BRANCH   7  11
ATOM     11  C   UNL     1      -7.225  -3.523  -1.150  0.00  0.00    +0.000 C 
BRANCH  11  12
ATOM     12  C   UNL     1      -7.615  -3.852  -2.592  0.00  0.00    +0.000 C 
BRANCH  12  13
ATOM     13  N   UNL     1      -8.715  -4.819  -2.593  0.00  0.00    +0.000 NA
ATOM     14  H   UNL     1      -8.945  -5.338  -1.733  0.00  0.00    +0.000 HD
BRANCH  13  15
ATOM     15  S   UNL     1      -9.589  -5.079  -3.975  0.00  0.00    +0.000 S 
ATOM     16  O   UNL     1     -10.569  -6.041  -3.609  0.00  0.00    +0.000 OA
ATOM     17  O   UNL     1      -9.974  -3.782  -4.410  0.00  0.00    +0.000 OA
BRANCH  15  19
ATOM     18  C   UNL     1      -9.113  -6.089  -6.472  0.00  0.00    +0.000 C 
ATOM     19  C   UNL     1      -8.407  -5.804  -5.144  0.00  0.00    +0.000 C 
ENDBRANCH  15  19
ENDBRANCH  13  15
ENDBRANCH  12  13
ENDBRANCH  11  12
ENDBRANCH   7  11
ENDBRANCH   1   8
BRANCH   4  20
ATOM     20  C   UNL     1      -1.290   1.681   0.017  0.00  0.00    +0.000 C 
BRANCH  20  21
ATOM     21  N   UNL     1      -0.011   0.966   0.007  0.00  0.00    +0.000 N 
ATOM     22  C   UNL     1       1.147   1.655   0.000  0.00  0.00    +0.000 C 
ATOM     23  O   UNL     1       1.130   2.871   0.007  0.00  0.00    +0.000 OA
ATOM     24  N   UNL     1       2.323   0.998  -0.015  0.00  0.00    +0.000 N 
ATOM     25  H   UNL     1       0.003  -0.064   0.006  0.00  0.00    +0.000 HD
ATOM     26  H   UNL     1       2.337  -0.032  -0.021  0.00  0.00    +0.000 HD
ATOM     27  H   UNL     1       3.208   1.525  -0.021  0.00  0.00    +0.000 HD
ENDBRANCH  20  21
ENDBRANCH   4  20
TORSDOF 8
ENDMDL
MODEL       50
REMARK  Name = ZINC05100546
REMARK  8 active torsions:
REMARK  status: ('A' for Active; 'I' for Inactive)
REMARK    1  A    between atoms: C_8  and  N_21
REMARK    2  A    between atoms: C_9  and  N_20
REMARK    3  A    between atoms: N_13  and  C_14
REMARK    4  A    between atoms: C_14  and  C_15
REMARK    5  A    between atoms: C_15  and  O_16
REMARK    6  A    between atoms: O_16  and  C_17
REMARK    7  A    between atoms: C_17  and  C_18
REMARK    8  A    between atoms: C_18  and  O_19
REMARK                            x       y       z     vdW  Elec       q    Type
REMARK                         _______ _______ _______ _____ _____    ______ ____
ROOT
ATOM      1  C   UNL     1       3.517  -3.757   6.473  0.00  0.00    +0.000 C 
ATOM      2  C   UNL     1       4.285  -4.040   5.179  0.00  0.00    +0.000 C 
ATOM      3  C   UNL     1       3.526  -3.429   3.998  0.00  0.00    +0.000 C 
ATOM      4  N   UNL     1       2.179  -4.009   3.927  0.00  0.00    +0.000 N 
ATOM      5  C   UNL     1       1.407  -3.710   5.139  0.00  0.00    +0.000 C 
ATOM      6  C   UNL     1       2.102  -4.330   6.354  0.00  0.00    +0.000 C 
ATOM      7  C   UNL     1       1.511  -3.575   2.793  0.00  0.00    +0.000 A 
ATOM      8  C   UNL     1       1.113  -4.484   1.817  0.00  0.00    +0.000 A 
ATOM      9  C   UNL     1       0.445  -4.003   0.696  0.00  0.00    +0.000 A 
ATOM     10  N   UNL     1       0.210  -2.696   0.593  0.00  0.00    +0.000 NA
ATOM     11  C   UNL     1       0.603  -1.860   1.541  0.00  0.00    +0.000 A 
ATOM     12  N   UNL     1       1.246  -2.282   2.619  0.00  0.00    +0.000 NA
ATOM     13  N   UNL     1       0.340  -0.509   1.399  0.00  0.00    +0.000 N 
ATOM     14  H   UNL     1       0.640   0.154   2.128  0.00  0.00    +0.000 HD
ENDROOT
BRANCH   8  15
ATOM     15  N   UNL     1       1.394  -5.930   1.969  0.00  0.00    +0.000 N 
ATOM     16  O   UNL     1       2.432  -6.397   1.537  0.00  0.00    +0.000 OA
ATOM     17  O   UNL     1       0.586  -6.652   2.526  0.00  0.00    +0.000 OA
ENDBRANCH   8  15
BRANCH   9  18
ATOM     18  N   UNL     1       0.030  -4.871  -0.302  0.00  0.00    +0.000 N 
ATOM     19  H   UNL     1       0.219  -5.880  -0.211  0.00  0.00    +0.000 HD
ATOM     20  H   UNL     1      -0.464  -4.511  -1.131  0.00  0.00    +0.000 HD
ENDBRANCH   9  18
BRANCH  13  21
ATOM     21  C   UNL     1      -0.364  -0.020   0.211  0.00  0.00    +0.000 C 
BRANCH  21  22
ATOM     22  C   UNL     1      -0.525   1.499   0.302  0.00  0.00    +0.000 C 
BRANCH  22  23
ATOM     23  O   UNL     1       0.762   2.117   0.259  0.00  0.00    +0.000 OA
BRANCH  23  24
ATOM     24  C   UNL     1       0.724   3.544   0.337  0.00  0.00    +0.000 C 
BRANCH  24  25
ATOM     25  C   UNL     1       2.150   4.095   0.282  0.00  0.00    +0.000 C 
BRANCH  25  26
ATOM     26  O   UNL     1       2.726   3.802  -0.992  0.00  0.00    +0.000 OA
ATOM     27  H   UNL     1       2.182   4.222  -1.705  0.00  0.00    +0.000 HD
ENDBRANCH  25  26
ENDBRANCH  24  25
ENDBRANCH  23  24
ENDBRANCH  22  23
ENDBRANCH  21  22
ENDBRANCH  13  21
TORSDOF 8
ENDMDL
MODEL       51
REMARK  Name = ZINC31561356
REMARK  8 active torsions:
REMARK  status: ('A' for Active; 'I' for Inactive)
REMARK    1  A    between atoms: N_5  and  C_9
REMARK    2  A    between atoms: C_9  and  C_10
REMARK    3  A    between atoms: C_10  and  C_11
REMARK    4  A    between atoms: C_11  and  N_12
REMARK    5  A    between atoms: N_12  and  C_13
REMARK    6  A    between atoms: C_13  and  C_14
REMARK    7  A    between atoms: C_14  and  S_15
REMARK    8  A    between atoms: S_15  and  P_16
REMARK                            x       y       z     vdW  Elec       q    Type
REMARK                         _______ _______ _______ _____ _____    ______ ____
ROOT
ATOM      1  C   UNL     1      -0.753   1.593  -1.232  0.00  0.00    +0.000 C 
ENDROOT
BRANCH   1   2
ATOM      2  N   UNL     1      -0.065   1.119  -2.440  0.00  0.00    +0.000 N 
ATOM      3  H   UNL     1       0.903   1.470  -2.440  0.00  0.00    +0.000 HD
ATOM      4  H   UNL     1      -0.045   0.089  -2.439  0.00  0.00    +0.000 HD
BRANCH   2   5
ATOM      5  C   UNL     1      -0.749   1.587  -3.653  0.00  0.00    +0.000 C 
BRANCH   5   6
ATOM      6  C   UNL     1      -0.006   1.075  -4.888  0.00  0.00    +0.000 C 
BRANCH   6   7
ATOM      7  S   UNL     1      -0.850   1.654  -6.385  0.00  0.00    +0.000 S 
BRANCH   7   8
ATOM      8  P   UNL     1      -0.326   3.704  -6.510  0.00  0.00    +0.000 P 
ATOM      9  O   UNL     1       1.145   3.832  -6.615  0.00  0.00    +0.000 OA
ATOM     10  O   UNL     1      -1.016   4.356  -7.811  0.00  0.00    +0.000 OA
ATOM     11  O   UNL     1      -0.839   4.470  -5.190  0.00  0.00    +0.000 OA
ENDBRANCH   7   8
ENDBRANCH   6   7
ENDBRANCH   5   6
ENDBRANCH   2   5
ENDBRANCH   1   2
BRANCH   1  12
ATOM     12  C   UNL     1      -0.013   1.086   0.008  0.00  0.00    +0.000 C 
BRANCH  12  13
ATOM     13  C   UNL     1      -0.729   1.579   1.267  0.00  0.00    +0.000 C 
BRANCH  13  18
ATOM     14  C   UNL     1       0.838   0.508   5.051  0.00  0.00    +0.000 C 
ATOM     15  C   UNL     1       1.732   1.402   4.186  0.00  0.00    +0.000 C 
ATOM     16  C   UNL     1       0.958   1.850   2.974  0.00  0.00    +0.000 C 
ATOM     17  O   UNL     1       1.223   2.915   2.460  0.00  0.00    +0.000 OA
ATOM     18  N   UNL     1      -0.020   1.094   2.454  0.00  0.00    +0.000 N 
ATOM     19  C   UNL     1      -0.379  -0.087   2.980  0.00  0.00    +0.000 C 
ATOM     20  O   UNL     1      -1.281  -0.716   2.470  0.00  0.00    +0.000 OA
ATOM     21  C   UNL     1       0.323  -0.649   4.188  0.00  0.00    +0.000 C 
ENDBRANCH  13  18
ENDBRANCH  12  13
ENDBRANCH   1  12
TORSDOF 8
ENDMDL
MODEL       52
REMARK  Name = ZINC11569359
REMARK  11 active torsions:
REMARK  status: ('A' for Active; 'I' for Inactive)
REMARK    1  A    between atoms: C_1  and  C_2
REMARK    2  A    between atoms: C_2  and  C_3
REMARK    3  A    between atoms: C_2  and  C_12
REMARK    4  A    between atoms: C_3  and  S_4
REMARK    5  A    between atoms: S_4  and  N_7
REMARK    6  A    between atoms: N_14  and  C_15
REMARK    7  A    between atoms: C_15  and  C_16
REMARK    8  A    between atoms: C_16  and  O_17
REMARK    9  A    between atoms: C_16  and  O_19
REMARK   10  A    between atoms: O_17  and  C_18
REMARK   11  A    between atoms: O_19  and  C_20
REMARK                            x       y       z     vdW  Elec       q    Type
REMARK                         _______ _______ _______ _____ _____    ______ ____
ROOT
ATOM      1  C   UNL     1      -2.232   4.423   2.696  0.00  0.00    +0.000 C 
ATOM      2  C   UNL     1      -2.740   2.990   2.868  0.00  0.00    +0.000 C 
ENDROOT
BRANCH   2   3
ATOM      3  C   UNL     1      -3.518   2.883   4.153  0.00  0.00    +0.000 C 
ATOM      4  O   UNL     1      -3.157   2.114   5.019  0.00  0.00    +0.000 OA
ATOM      5  N   UNL     1      -4.616   3.641   4.342  0.00  0.00    +0.000 N 
ATOM      6  H   UNL     1      -4.923   4.294   3.607  0.00  0.00    +0.000 HD
BRANCH   5   7
ATOM      7  C   UNL     1      -5.373   3.537   5.592  0.00  0.00    +0.000 C 
BRANCH   7   8
ATOM      8  C   UNL     1      -6.563   4.498   5.549  0.00  0.00    +0.000 C 
BRANCH   8   9
ATOM      9  O   UNL     1      -6.089   5.836   5.389  0.00  0.00    +0.000 OA
ATOM     10  C   UNL     1      -6.978   6.832   5.899  0.00  0.00    +0.000 C 
ENDBRANCH   8   9
BRANCH   8  11
ATOM     11  O   UNL     1      -7.410   4.158   4.449  0.00  0.00    +0.000 OA
ATOM     12  C   UNL     1      -8.697   4.776   4.495  0.00  0.00    +0.000 C 
ENDBRANCH   8  11
ENDBRANCH   7   8
ENDBRANCH   5   7
ENDBRANCH   2   3
BRANCH   2  13
ATOM     13  C   UNL     1      -1.549   2.029   2.910  0.00  0.00    +0.000 C 
BRANCH  13  14
ATOM     14  S   UNL     1      -0.698   2.049   1.308  0.00  0.00    +0.000 S 
ATOM     15  O   UNL     1      -0.076   3.310   1.100  0.00  0.00    +0.000 OA
ATOM     16  O   UNL     1      -1.528   1.476   0.307  0.00  0.00    +0.000 OA
BRANCH  14  17
ATOM     17  N   UNL     1       0.556   0.982   1.480  0.00  0.00    +0.000 NA
ATOM     18  C   UNL     1       1.872   1.434   1.958  0.00  0.00    +0.000 C 
ATOM     19  C   UNL     1       2.942   0.941   0.978  0.00  0.00    +0.000 C 
ATOM     20  C   UNL     1       1.514  -0.861   0.204  0.00  0.00    +0.000 C 
ATOM     21  C   UNL     1       0.386  -0.442   1.152  0.00  0.00    +0.000 C 
ATOM     22  N   UNL     1       2.818  -0.520   0.807  0.00  0.00    +0.000 NA
ATOM     23  H   UNL     1       3.575  -0.858   0.195  0.00  0.00    +0.000 HD
ENDBRANCH  14  17
ENDBRANCH  13  14
ENDBRANCH   2  13
TORSDOF 8
ENDMDL
MODEL       53
REMARK  Name = ZINC22047827
REMARK  11 active torsions:
REMARK  status: ('A' for Active; 'I' for Inactive)
REMARK    1  A    between atoms: N_11  and  N_12
REMARK    2  A    between atoms: C_13  and  C_14
REMARK    3  A    between atoms: C_13  and  C_16
REMARK    4  A    between atoms: C_14  and  O_15
REMARK    5  A    between atoms: C_16  and  C_17
REMARK    6  A    between atoms: C_16  and  O_23
REMARK    7  A    between atoms: C_17  and  C_18
REMARK    8  A    between atoms: C_17  and  O_22
REMARK    9  A    between atoms: C_18  and  C_19
REMARK   10  A    between atoms: C_18  and  O_21
REMARK   11  A    between atoms: C_19  and  O_20
REMARK                            x       y       z     vdW  Elec       q    Type
REMARK                         _______ _______ _______ _____ _____    ______ ____
ROOT
ATOM      1  N   UNL     1      -1.150  -2.133  -0.064  0.00  0.00    +0.000 NA
ATOM      2  C   UNL     1      -2.233  -2.794   0.104  0.00  0.00    +0.000 C 
ENDROOT
BRANCH   1  13
ATOM      3  C   UNL     1       0.074   4.164  -0.377  0.00  0.00    +0.000 A 
ATOM      4  C   UNL     1      -1.149   3.502  -0.299  0.00  0.00    +0.000 A 
ATOM      5  C   UNL     1      -1.210   2.140  -0.244  0.00  0.00    +0.000 A 
ATOM      6  C   UNL     1      -0.024   1.399  -0.257  0.00  0.00    +0.000 A 
ATOM      7  C   UNL     1       1.222   2.072  -0.336  0.00  0.00    +0.000 A 
ATOM      8  C   UNL     1       1.248   3.472  -0.396  0.00  0.00    +0.000 A 
ATOM      9  C   UNL     1       2.391   1.289  -0.352  0.00  0.00    +0.000 A 
ATOM     10  N   UNL     1       2.284  -0.019  -0.293  0.00  0.00    +0.000 NA
ATOM     11  N   UNL     1       1.163  -0.634  -0.221  0.00  0.00    +0.000 NA
ATOM     12  C   UNL     1      -0.004  -0.014  -0.199  0.00  0.00    +0.000 A 
ATOM     13  N   UNL     1      -1.185  -0.733  -0.121  0.00  0.00    +0.000 N 
ATOM     14  H   UNL     1      -2.089  -0.240  -0.104  0.00  0.00    +0.000 HD
ENDBRANCH   1  13
BRANCH   2  15
ATOM     15  C   UNL     1      -2.183  -4.289   0.286  0.00  0.00    +0.000 C 
BRANCH  15  16
ATOM     16  O   UNL     1      -2.830  -4.925  -0.818  0.00  0.00    +0.000 OA
ATOM     17  H   UNL     1      -2.368  -4.680  -1.659  0.00  0.00    +0.000 HD
ENDBRANCH  15  16
BRANCH  15  18
ATOM     18  C   UNL     1      -2.897  -4.670   1.584  0.00  0.00    +0.000 C 
BRANCH  18  19
ATOM     19  O   UNL     1      -4.225  -4.142   1.569  0.00  0.00    +0.000 OA
ATOM     20  H   UNL     1      -4.721  -4.516   0.798  0.00  0.00    +0.000 HD
ENDBRANCH  18  19
BRANCH  18  21
ATOM     21  C   UNL     1      -2.956  -6.194   1.706  0.00  0.00    +0.000 C 
BRANCH  21  22
ATOM     22  O   UNL     1      -1.628  -6.721   1.721  0.00  0.00    +0.000 OA
ATOM     23  H   UNL     1      -1.132  -6.348   2.492  0.00  0.00    +0.000 HD
ENDBRANCH  21  22
BRANCH  21  24
ATOM     24  C   UNL     1      -3.670  -6.574   3.005  0.00  0.00    +0.000 C 
BRANCH  24  25
ATOM     25  O   UNL     1      -3.828  -7.993   3.063  0.00  0.00    +0.000 OA
ATOM     26  H   UNL     1      -2.938  -8.426   3.038  0.00  0.00    +0.000 HD
ENDBRANCH  24  25
ENDBRANCH  21  24
ENDBRANCH  18  21
ENDBRANCH  15  18
ENDBRANCH   2  15
BRANCH   2  27
ATOM     27  C   UNL     1      -3.559  -2.077   0.120  0.00  0.00    +0.000 C 
BRANCH  27  28
ATOM     28  O   UNL     1      -3.800  -1.551   1.427  0.00  0.00    +0.000 OA
ATOM     29  H   UNL     1      -3.079  -0.916   1.666  0.00  0.00    +0.000 HD
ENDBRANCH  27  28
ENDBRANCH   2  27
TORSDOF 11
ENDMDL
MODEL       54
REMARK  Name = ZINC01573805
REMARK  13 active torsions:
REMARK  status: ('A' for Active; 'I' for Inactive)
REMARK    1  A    between atoms: CD1_1  and  CG_2
REMARK    2  A    between atoms: CG_2  and  CD2_3
REMARK    3  A    between atoms: CG_2  and  CB_4
REMARK    4  A    between atoms: CB_4  and  CA_5
REMARK    5  A    between atoms: CA_5  and  C_6
REMARK    6  A    between atoms: CA_5  and  N_8
REMARK    7  A    between atoms: C_9  and  C_11
REMARK    8  A    between atoms: C_11  and  C_12
REMARK    9  A    between atoms: C_11  and  O_21
REMARK   10  A    between atoms: C_12  and  C_13
REMARK   11  A    between atoms: C_12  and  N_23
REMARK   12  A    between atoms: C_13  and  C_14
REMARK   13  A    between atoms: C_17  and  O_20
REMARK                            x       y       z     vdW  Elec       q    Type
REMARK                         _______ _______ _______ _____ _____    ______ ____
ROOT
ATOM      1  C   UNK A   0      -1.330   1.944   0.019  0.00  0.00    +0.000 C 
ENDROOT
BRANCH   1   3
ATOM      2  N   LEU A   1       1.143   1.898   0.001  0.00  0.00    +0.000 N 
ATOM      3  C   UNK A   0      -0.014   1.209   0.009  0.00  0.00    +0.000 C 
ATOM      4  O   UNK A   0       0.002  -0.004   0.002  0.00  0.00    +0.000 OA
ATOM      5  H   LEU A   1       1.129   2.928   0.007  0.00  0.00    +0.000 HD
BRANCH   2   6
ATOM      6  CA  LEU A   1       2.422   1.183  -0.015  0.00  0.00    +0.000 C 
BRANCH   6   7
ATOM      7  C   LEU A   1       2.813   0.822   1.395  0.00  0.00    +0.000 C 
ATOM      8  O   LEU A   1       2.098   1.131   2.318  0.00  0.00    +0.000 OA
ATOM      9  OXT LEU A   1       3.957   0.158   1.625  0.00  0.00    +0.000 OA
ENDBRANCH   6   7
BRANCH   6  10
ATOM     10  CB  LEU A   1       3.499   2.078  -0.630  0.00  0.00    +0.000 C 
BRANCH  10  12
ATOM     11  CD1 LEU A   1       4.172   3.337  -2.681  0.00  0.00    +0.000 C 
ATOM     12  CG  LEU A   1       3.165   2.343  -2.099  0.00  0.00    +0.000 C 
ATOM     13  CD2 LEU A   1       3.234   1.030  -2.882  0.00  0.00    +0.000 C 
ENDBRANCH  10  12
ENDBRANCH   6  10
ENDBRANCH   2   6
ENDBRANCH   1   3
BRANCH   1  14
ATOM     14  O   UNK A   0      -2.401   1.006  -0.099  0.00  0.00    +0.000 OA
ATOM     15  H   UNK A   0      -2.372   0.373   0.662  0.00  0.00    +0.000 HD
ENDBRANCH   1  14
BRANCH   1  16
ATOM     16  C   UNK A   0      -1.471   2.718   1.331  0.00  0.00    +0.000 C 
BRANCH  16  17
ATOM     17  N   UNK A   0      -1.283   1.788   2.458  0.00  0.00    +0.000 N 
ATOM     18  H   UNK A   0      -0.345   1.366   2.409  0.00  0.00    +0.000 HD
ATOM     19  H   UNK A   0      -1.997   1.046   2.420  0.00  0.00    +0.000 HD
ATOM     20  H   UNK A   0      -1.377   2.304   3.345  0.00  0.00    +0.000 HD
ENDBRANCH  16  17
BRANCH  16  21
ATOM     21  C   UNK A   0      -2.857   3.364   1.396  0.00  0.00    +0.000 C 
BRANCH  21  22
ATOM     22  C   UNK A   0      -2.952   4.225   2.629  0.00  0.00    +0.000 A 
ATOM     23  C   UNK A   0      -3.409   3.683   3.816  0.00  0.00    +0.000 A 
ATOM     24  C   UNK A   0      -3.492   4.470   4.949  0.00  0.00    +0.000 A 
ATOM     25  C   UNK A   0      -3.127   5.807   4.892  0.00  0.00    +0.000 A 
ATOM     26  C   UNK A   0      -2.675   6.350   3.698  0.00  0.00    +0.000 A 
ATOM     27  C   UNK A   0      -2.588   5.558   2.569  0.00  0.00    +0.000 A 
BRANCH  25  28
ATOM     28  O   UNK A   0      -3.214   6.584   6.003  0.00  0.00    +0.000 OA
ATOM     29  H   UNK A   0      -2.664   6.119   6.682  0.00  0.00    +0.000 HD
ENDBRANCH  25  28
ENDBRANCH  21  22
ENDBRANCH  16  21
ENDBRANCH   1  16
TORSDOF 11
ENDMDL
MODEL       55
REMARK  Name = ZINC20325387
REMARK  9 active torsions:
REMARK  status: ('A' for Active; 'I' for Inactive)
REMARK    1  A    between atoms: C_1  and  C_2
REMARK    2  A    between atoms: C_2  and  C_3
REMARK    3  A    between atoms: C_3  and  C_4
REMARK    4  A    between atoms: C_4  and  N_5
REMARK    5  A    between atoms: C_9  and  N_10
REMARK    6  A    between atoms: N_10  and  C_11
REMARK    7  A    between atoms: C_11  and  C_12
REMARK    8  A    between atoms: C_12  and  C_13
REMARK    9  A    between atoms: C_13  and  N_14
REMARK                            x       y       z     vdW  Elec       q    Type
REMARK                         _______ _______ _______ _____ _____    ______ ____
ROOT
ATOM      1  N   UNL     1      -0.437   1.368   3.959  0.00  0.00    +0.000 N 
ATOM      2  C   UNL     1      -0.225   2.638   4.361  0.00  0.00    +0.000 C 
ATOM      3  O   UNL     1       0.479   3.389   3.714  0.00  0.00    +0.000 OA
ATOM      4  C   UNL     1      -0.875   3.092   5.604  0.00  0.00    +0.000 C 
ATOM      5  C   UNL     1      -0.708   4.381   6.076  0.00  0.00    +0.000 C 
ATOM      6  C   UNL     1      -1.705   2.111   6.324  0.00  0.00    +0.000 C 
ATOM      7  O   UNL     1      -2.269   2.410   7.360  0.00  0.00    +0.000 OA
ATOM      8  N   UNL     1      -1.822   0.871   5.805  0.00  0.00    +0.000 N 
ATOM      9  C   UNL     1      -1.206   0.528   4.665  0.00  0.00    +0.000 C 
ATOM     10  O   UNL     1      -1.353  -0.605   4.250  0.00  0.00    +0.000 OA
ATOM     11  H   UNL     1      -2.399   0.172   6.295  0.00  0.00    +0.000 HD
ENDROOT
BRANCH   5  12
ATOM     12  N   UNL     1      -1.437   4.814   7.123  0.00  0.00    +0.000 N 
ATOM     13  H   UNL     1      -2.177   4.217   7.518  0.00  0.00    +0.000 HD
BRANCH  12  14
ATOM     14  C   UNL     1      -1.176   6.136   7.701  0.00  0.00    +0.000 C 
BRANCH  14  15
ATOM     15  C   UNL     1      -2.134   6.380   8.868  0.00  0.00    +0.000 C 
BRANCH  15  16
ATOM     16  C   UNL     1      -1.862   7.760   9.471  0.00  0.00    +0.000 C 
BRANCH  16  17
ATOM     17  N   UNL     1      -2.782   7.995  10.592  0.00  0.00    +0.000 N 
ATOM     18  C   UNL     1      -4.171   8.094  10.121  0.00  0.00    +0.000 C 
ATOM     19  C   UNL     1      -5.100   8.279  11.324  0.00  0.00    +0.000 C 
ATOM     20  O   UNL     1      -4.694   9.435  12.060  0.00  0.00    +0.000 OA
ATOM     21  C   UNL     1      -3.346   9.372  12.534  0.00  0.00    +0.000 C 
ATOM     22  C   UNL     1      -2.400   9.199  11.344  0.00  0.00    +0.000 C 
ATOM     23  H   UNL     1      -2.717   7.187  11.227  0.00  0.00    +0.000 HD
ENDBRANCH  16  17
ENDBRANCH  15  16
ENDBRANCH  14  15
ENDBRANCH  12  14
ENDBRANCH   5  12
BRANCH   1  24
ATOM     24  C   UNL     1       0.194   0.894   2.724  0.00  0.00    +0.000 C 
BRANCH  24  25
ATOM     25  C   UNL     1      -0.741   1.154   1.541  0.00  0.00    +0.000 C 
BRANCH  25  27
ATOM     26  C   UNL     1      -1.017   0.918  -0.931  0.00  0.00    +0.000 C 
ATOM     27  C   UNL     1      -0.082   0.659   0.252  0.00  0.00    +0.000 C 
ENDBRANCH  25  27
ENDBRANCH  24  25
ENDBRANCH   1  24
TORSDOF 8
ENDMDL
MODEL       56
REMARK  Name = ZINC05692518
REMARK  13 active torsions:
REMARK  status: ('A' for Active; 'I' for Inactive)
REMARK    1  A    between atoms: C_1  and  C_2
REMARK    2  A    between atoms: C_2  and  C_3
REMARK    3  A    between atoms: C_2  and  C_4
REMARK    4  A    between atoms: C_4  and  N_5
REMARK    5  A    between atoms: C_6  and  N_23
REMARK    6  A    between atoms: C_7  and  C_14
REMARK    7  A    between atoms: N_10  and  C_13
REMARK    8  A    between atoms: C_14  and  C_16
REMARK    9  A    between atoms: C_16  and  O_17
REMARK   10  A    between atoms: O_17  and  C_18
REMARK   11  A    between atoms: C_18  and  C_20
REMARK   12  A    between atoms: C_20  and  O_21
REMARK   13  A    between atoms: O_21  and  C_22
REMARK                            x       y       z     vdW  Elec       q    Type
REMARK                         _______ _______ _______ _____ _____    ______ ____
ROOT
ATOM      1  N   UNL     1       0.774  -1.983  -1.228  0.00  0.00    +0.000 N 
ATOM      2  C   UNL     1      -0.346  -2.402  -1.889  0.00  0.00    +0.000 A 
ATOM      3  C   UNL     1      -0.562  -3.782  -2.051  0.00  0.00    +0.000 A 
ATOM      4  C   UNL     1       0.437  -4.704  -1.496  0.00  0.00    +0.000 A 
ATOM      5  O   UNL     1       0.301  -5.908  -1.607  0.00  0.00    +0.000 OA
ATOM      6  N   UNL     1       1.510  -4.188  -0.860  0.00  0.00    +0.000 N 
ATOM      7  C   UNL     1       1.665  -2.859  -0.740  0.00  0.00    +0.000 A 
ATOM      8  O   UNL     1       2.648  -2.435  -0.165  0.00  0.00    +0.000 OA
ATOM      9  C   UNL     1       2.519  -5.088  -0.298  0.00  0.00    +0.000 C 
ENDROOT
BRANCH   2  10
ATOM     10  N   UNL     1      -1.237  -1.500  -2.381  0.00  0.00    +0.000 N 
ATOM     11  H   UNL     1      -1.064  -0.493  -2.254  0.00  0.00    +0.000 HD
ATOM     12  H   UNL     1      -2.080  -1.821  -2.879  0.00  0.00    +0.000 HD
ENDBRANCH   2  10
BRANCH   3  13
ATOM     13  C   UNL     1      -1.703  -4.266  -2.726  0.00  0.00    +0.000 C 
ATOM     14  O   UNL     1      -2.461  -3.489  -3.272  0.00  0.00    +0.000 OA
BRANCH  13  15
ATOM     15  C   UNL     1      -1.981  -5.746  -2.771  0.00  0.00    +0.000 C 
BRANCH  15  16
ATOM     16  O   UNL     1      -3.203  -5.987  -3.518  0.00  0.00    +0.000 OA
BRANCH  16  17
ATOM     17  C   UNL     1      -3.594  -7.264  -3.651  0.00  0.00    +0.000 C 
ATOM     18  O   UNL     1      -2.937  -8.151  -3.160  0.00  0.00    +0.000 OA
BRANCH  17  19
ATOM     19  C   UNL     1      -4.852  -7.591  -4.414  0.00  0.00    +0.000 C 
BRANCH  19  20
ATOM     20  O   UNL     1      -5.053  -9.006  -4.416  0.00  0.00    +0.000 OA
ATOM     21  C   UNL     1      -6.226  -9.425  -5.117  0.00  0.00    +0.000 C 
ENDBRANCH  19  20
ENDBRANCH  17  19
ENDBRANCH  16  17
ENDBRANCH  15  16
ENDBRANCH  13  15
ENDBRANCH   3  13
BRANCH   1  22
ATOM     22  C   UNL     1       1.009  -0.547  -1.054  0.00  0.00    +0.000 C 
BRANCH  22  24
ATOM     23  C   UNL     1       0.503   1.439   0.375  0.00  0.00    +0.000 C 
ATOM     24  C   UNL     1       0.367  -0.080   0.254  0.00  0.00    +0.000 C 
ATOM     25  C   UNL     1       1.070  -0.752   1.435  0.00  0.00    +0.000 C 
ENDBRANCH  22  24
ENDBRANCH   1  22
TORSDOF 9
ENDMDL
MODEL       57
REMARK  Name = ZINC18192578
REMARK  11 active torsions:
REMARK  status: ('A' for Active; 'I' for Inactive)
REMARK    1  A    between atoms: C_1  and  O_2
REMARK    2  A    between atoms: O_2  and  C_3
REMARK    3  A    between atoms: C_3  and  C_4
REMARK    4  A    between atoms: C_4  and  N_5
REMARK    5  A    between atoms: C_6  and  C_8
REMARK    6  A    between atoms: N_10  and  N_11
REMARK    7  A    between atoms: C_12  and  C_14
REMARK    8  A    between atoms: C_17  and  O_22
REMARK    9  A    between atoms: C_18  and  O_20
REMARK   10  A    between atoms: O_20  and  C_21
REMARK   11  A    between atoms: O_22  and  C_23
REMARK                            x       y       z     vdW  Elec       q    Type
REMARK                         _______ _______ _______ _____ _____    ______ ____
ROOT
ATOM      1  N   UNL     1      -0.011   0.966   0.007  0.00  0.00    +0.000 N 
ATOM      2  C   UNL     1      -1.187   1.624   0.017  0.00  0.00    +0.000 C 
ATOM      3  O   UNL     1      -1.204   2.840   0.023  0.00  0.00    +0.000 OA
ATOM      4  H   UNL     1       0.003  -0.064   0.006  0.00  0.00    +0.000 HD
ENDROOT
BRANCH   2   5
ATOM      5  C   UNL     1      -2.455   0.868   0.018  0.00  0.00    +0.000 A 
ATOM      6  C   UNL     1      -2.438  -0.528   0.005  0.00  0.00    +0.000 A 
ATOM      7  C   UNL     1      -3.623  -1.232   0.012  0.00  0.00    +0.000 A 
ATOM      8  C   UNL     1      -4.835  -0.556   0.021  0.00  0.00    +0.000 A 
ATOM      9  C   UNL     1      -4.860   0.838   0.029  0.00  0.00    +0.000 A 
ATOM     10  C   UNL     1      -3.676   1.549   0.028  0.00  0.00    +0.000 A 
BRANCH   9  11
ATOM     11  O   UNL     1      -6.049   1.497   0.039  0.00  0.00    +0.000 OA
ATOM     12  C   UNL     1      -6.000   2.925   0.047  0.00  0.00    +0.000 C 
ENDBRANCH   9  11
BRANCH   8  13
ATOM     13  O   UNL     1      -6.000  -1.254   0.023  0.00  0.00    +0.000 OA
ATOM     14  C   UNL     1      -5.902  -2.680   0.014  0.00  0.00    +0.000 C 
ENDBRANCH   8  13
ENDBRANCH   2   5
BRANCH   1  17
ATOM     15  C   UNL     1       2.369   1.025  -0.015  0.00  0.00    +0.000 C 
ATOM     16  O   UNL     1       2.385  -0.189  -0.022  0.00  0.00    +0.000 OA
ATOM     17  N   UNL     1       1.193   1.683  -0.000  0.00  0.00    +0.000 N 
ATOM     18  H   UNL     1       1.179   2.713   0.005  0.00  0.00    +0.000 HD
BRANCH  15  20
ATOM     19  N   UNL     1       4.829   1.132  -0.038  0.00  0.00    +0.000 N 
ATOM     20  C   UNL     1       3.653   1.790  -0.023  0.00  0.00    +0.000 C 
ATOM     21  O   UNL     1       3.636   3.003  -0.017  0.00  0.00    +0.000 OA
ATOM     22  H   UNL     1       4.843   0.102  -0.044  0.00  0.00    +0.000 HD
BRANCH  19  23
ATOM     23  C   UNL     1       6.088   1.881  -0.046  0.00  0.00    +0.000 C 
BRANCH  23  24
ATOM     24  C   UNL     1       7.264   0.903  -0.062  0.00  0.00    +0.000 C 
BRANCH  24  26
ATOM     25  C   UNL     1       8.318  -0.780  -1.405  0.00  0.00    +0.000 C 
ATOM     26  O   UNL     1       7.254   0.167  -1.287  0.00  0.00    +0.000 OA
ENDBRANCH  24  26
ENDBRANCH  23  24
ENDBRANCH  19  23
ENDBRANCH  15  20
ENDBRANCH   1  17
TORSDOF 8
ENDMDL
MODEL       58
REMARK  Name = ZINC02014486
REMARK  8 active torsions:
REMARK  status: ('A' for Active; 'I' for Inactive)
REMARK    1  A    between atoms: C_3  and  N_19
REMARK    2  A    between atoms: C_5  and  C_6
REMARK    3  A    between atoms: N_7  and  N_8
REMARK    4  A    between atoms: C_9  and  C_11
REMARK    5  A    between atoms: C_11  and  N_22
REMARK    6  A    between atoms: C_16  and  C_17
REMARK    7  A    between atoms: C_16  and  N_23
REMARK    8  A    between atoms: C_17  and  O_18
REMARK                            x       y       z     vdW  Elec       q    Type
REMARK                         _______ _______ _______ _____ _____    ______ ____
ROOT
ATOM      1  N   UNL     1      -0.007   0.105   1.036  0.00  0.00    +0.000 N 
ATOM      2  C   UNL     1      -1.160  -0.578   0.888  0.00  0.00    +0.000 C 
ATOM      3  O   UNL     1      -2.222   0.001   0.975  0.00  0.00    +0.000 OA
ATOM      4  H   UNL     1       0.895  -0.386   0.962  0.00  0.00    +0.000 HD
ENDROOT
BRANCH   1   6
ATOM      5  C   UNL     1       1.081   2.144   1.431  0.00  0.00    +0.000 C 
ATOM      6  N   UNL     1      -0.036   1.483   1.288  0.00  0.00    +0.000 NA
BRANCH   5  11
ATOM      7  C   UNL     1       2.151   4.358   1.864  0.00  0.00    +0.000 A 
ATOM      8  C   UNL     1       1.655   5.649   2.088  0.00  0.00    +0.000 A 
ATOM      9  C   UNL     1       0.304   5.572   2.048  0.00  0.00    +0.000 A 
ATOM     10  O   UNL     1      -0.054   4.301   1.807  0.00  0.00    +0.000 OA
ATOM     11  C   UNL     1       1.051   3.538   1.687  0.00  0.00    +0.000 A 
BRANCH   9  12
ATOM     12  N   UNL     1      -0.671   6.757   2.249  0.00  0.00    +0.000 N 
ATOM     13  O   UNL     1      -0.235   7.874   2.464  0.00  0.00    +0.000 OA
ATOM     14  O   UNL     1      -1.874   6.573   2.193  0.00  0.00    +0.000 OA
ENDBRANCH   9  12
ENDBRANCH   5  11
ENDBRANCH   1   6
BRANCH   2  15
ATOM     15  C   UNL     1      -1.128  -2.060   0.617  0.00  0.00    +0.000 C 
BRANCH  15  20
ATOM     16  C   UNL     1      -3.214  -2.463   1.780  0.00  0.00    +0.000 C 
ATOM     17  C   UNL     1      -4.662  -2.923   1.595  0.00  0.00    +0.000 C 
ATOM     18  C   UNL     1      -3.962  -4.408  -0.184  0.00  0.00    +0.000 C 
ATOM     19  C   UNL     1      -2.514  -3.948   0.001  0.00  0.00    +0.000 C 
ATOM     20  N   UNL     1      -2.517  -2.549   0.479  0.00  0.00    +0.000 NA
ATOM     21  N   UNL     1      -4.659  -4.322   1.117  0.00  0.00    +0.000 N 
ATOM     22  H   UNL     1      -4.164  -4.910   1.802  0.00  0.00    +0.000 HD
BRANCH  21  23
ATOM     23  C   UNL     1      -6.048  -4.811   0.979  0.00  0.00    +0.000 C 
BRANCH  23  24
ATOM     24  C   UNL     1      -6.027  -6.341   0.941  0.00  0.00    +0.000 C 
BRANCH  24  25
ATOM     25  O   UNL     1      -5.539  -6.842   2.187  0.00  0.00    +0.000 OA
ATOM     26  H   UNL     1      -6.131  -6.539   2.920  0.00  0.00    +0.000 HD
ENDBRANCH  24  25
ENDBRANCH  23  24
ENDBRANCH  21  23
ENDBRANCH  15  20
ENDBRANCH   2  15
TORSDOF 8
ENDMDL
MODEL       59
REMARK  Name = ZINC04646822
REMARK  10 active torsions:
REMARK  status: ('A' for Active; 'I' for Inactive)
REMARK    1  A    between atoms: C_1  and  C_2
REMARK    2  A    between atoms: C_2  and  O_3
REMARK    3  A    between atoms: O_3  and  C_4
REMARK    4  A    between atoms: C_4  and  C_6
REMARK    5  A    between atoms: C_6  and  C_21
REMARK    6  A    between atoms: N_7  and  N_8
REMARK    7  A    between atoms: N_8  and  C_9
REMARK    8  A    between atoms: C_11  and  C_18
REMARK    9  A    between atoms: C_13  and  C_15
REMARK   10  A    between atoms: C_21  and  C_23
REMARK                            x       y       z     vdW  Elec       q    Type
REMARK                         _______ _______ _______ _____ _____    ______ ____
ROOT
ATOM      1  C   UNL     1      -0.247   5.272  -0.471  0.00  0.00    +0.000 A 
ATOM      2  C   UNL     1      -1.462   5.944  -0.467  0.00  0.00    +0.000 A 
ATOM      3  C   UNL     1      -1.498   7.325  -0.663  0.00  0.00    +0.000 A 
ATOM      4  C   UNL     1      -0.314   8.028  -0.875  0.00  0.00    +0.000 A 
ATOM      5  C   UNL     1       0.904   7.351  -0.884  0.00  0.00    +0.000 A 
ATOM      6  C   UNL     1       0.934   5.970  -0.682  0.00  0.00    +0.000 A 
ENDROOT
BRANCH   3   7
ATOM      7  C   UNL     1      -2.792   8.040  -0.652  0.00  0.00    +0.000 C 
ATOM      8  O   UNL     1      -2.824   9.243  -0.828  0.00  0.00    +0.000 OA
ATOM      9  N   UNL     1      -3.937   7.359  -0.448  0.00  0.00    +0.000 N 
ATOM     10  H   UNL     1      -3.911   6.341  -0.299  0.00  0.00    +0.000 HD
ATOM     11  H   UNL     1      -4.839   7.858  -0.440  0.00  0.00    +0.000 HD
ENDBRANCH   3   7
BRANCH   5  12
ATOM     12  C   UNL     1       2.162   8.094  -1.108  0.00  0.00    +0.000 C 
ATOM     13  O   UNL     1       2.135   9.296  -1.284  0.00  0.00    +0.000 OA
ATOM     14  N   UNL     1       3.340   7.438  -1.116  0.00  0.00    +0.000 N 
ATOM     15  H   UNL     1       3.363   6.419  -0.967  0.00  0.00    +0.000 HD
ATOM     16  H   UNL     1       4.216   7.956  -1.272  0.00  0.00    +0.000 HD
ENDBRANCH   5  12
BRANCH   1  17
ATOM     17  N   UNL     1      -0.214   3.891  -0.269  0.00  0.00    +0.000 N 
ATOM     18  H   UNL     1       0.687   3.392  -0.277  0.00  0.00    +0.000 HD
BRANCH  17  20
ATOM     19  C   UNL     1      -1.291   1.923   0.016  0.00  0.00    +0.000 C 
ATOM     20  N   UNL     1      -1.311   3.241  -0.074  0.00  0.00    +0.000 NA
BRANCH  19  21
ATOM     21  C   UNL     1      -0.015   1.209   0.004  0.00  0.00    +0.000 C 
ATOM     22  O   UNL     1       0.522   0.908   1.050  0.00  0.00    +0.000 OA
ATOM     23  C   UNL     1       0.630   0.842  -1.307  0.00  0.00    +0.000 C 
ENDBRANCH  19  21
BRANCH  19  24
ATOM     24  C   UNL     1      -2.551   1.175   0.129  0.00  0.00    +0.000 C 
ATOM     25  O   UNL     1      -2.533  -0.038   0.212  0.00  0.00    +0.000 OA
BRANCH  24  26
ATOM     26  O   UNL     1      -3.728   1.833   0.141  0.00  0.00    +0.000 OA
BRANCH  26  28
ATOM     27  C   UNL     1      -6.158   1.945   0.250  0.00  0.00    +0.000 C 
ATOM     28  C   UNL     1      -4.932   1.030   0.254  0.00  0.00    +0.000 C 
ENDBRANCH  26  28
ENDBRANCH  24  26
ENDBRANCH  19  24
ENDBRANCH  17  20
ENDBRANCH   1  17
TORSDOF 8
ENDMDL
MODEL       60
REMARK  Name = ZINC08576550
REMARK  7 active torsions:
REMARK  status: ('A' for Active; 'I' for Inactive)
REMARK    1  A    between atoms: C_1  and  C_2
REMARK    2  A    between atoms: C_2  and  O_3
REMARK    3  A    between atoms: O_3  and  C_4
REMARK    4  A    between atoms: C_4  and  C_6
REMARK    5  A    between atoms: C_7  and  C_8
REMARK    6  A    between atoms: C_8  and  N_10
REMARK    7  A    between atoms: N_15  and  C_16
REMARK                            x       y       z     vdW  Elec       q    Type
REMARK                         _______ _______ _______ _____ _____    ______ ____
ROOT
ATOM      1  N   UNL     1       0.437   1.820  -0.778  0.00  0.00    +0.000 NA
ATOM      2  C   UNL     1       1.645   2.341  -0.627  0.00  0.00    +0.000 C 
ATOM      3  N   UNL     1       1.865   3.651  -0.932  0.00  0.00    +0.000 N 
ATOM      4  N   UNL     1       2.672   1.565  -0.164  0.00  0.00    +0.000 N 
ATOM      5  C   UNL     1       3.729   2.147   0.503  0.00  0.00    +0.000 C 
ATOM      6  N   UNL     1       4.875   1.516   0.591  0.00  0.00    +0.000 N 
ATOM      7  N   UNL     1       3.583   3.387   1.073  0.00  0.00    +0.000 N 
ATOM      8  H   UNL     1       1.092   4.235  -1.281  0.00  0.00    +0.000 HD
ATOM      9  H   UNL     1       2.804   4.056  -0.815  0.00  0.00    +0.000 HD
ATOM     10  H   UNL     1       2.655   0.546  -0.312  0.00  0.00    +0.000 HD
ATOM     11  H   UNL     1       4.954   0.543   0.262  0.00  0.00    +0.000 HD
ATOM     12  H   UNL     1       2.682   3.883   1.004  0.00  0.00    +0.000 HD
ATOM     13  H   UNL     1       4.373   3.822   1.571  0.00  0.00    +0.000 HD
ENDROOT
BRANCH   6  14
ATOM     14  C   UNL     1       5.968   2.151   1.122  0.00  0.00    +0.000 A 
ATOM     15  C   UNL     1       6.373   3.387   0.620  0.00  0.00    +0.000 A 
ATOM     16  C   UNL     1       7.474   4.021   1.159  0.00  0.00    +0.000 A 
ATOM     17  C   UNL     1       8.177   3.436   2.197  0.00  0.00    +0.000 A 
ATOM     18  C   UNL     1       7.783   2.211   2.703  0.00  0.00    +0.000 A 
ATOM     19  C   UNL     1       6.679   1.564   2.176  0.00  0.00    +0.000 A 
ATOM     20  O   UNL     1       6.289   0.362   2.677  0.00  0.00    +0.000 OA
ENDBRANCH   6  14
BRANCH   1  21
ATOM     21  C   UNL     1       0.180   0.584  -0.329  0.00  0.00    +0.000 C 
ATOM     22  O   UNL     1       1.081  -0.100   0.122  0.00  0.00    +0.000 OA
BRANCH  21  24
ATOM     23  C   UNL     1      -1.456  -1.189   0.067  0.00  0.00    +0.000 C 
ATOM     24  C   UNL     1      -1.198   0.050  -0.382  0.00  0.00    +0.000 C 
BRANCH  23  25
ATOM     25  C   UNL     1      -2.829  -1.721   0.015  0.00  0.00    +0.000 C 
ATOM     26  O   UNL     1      -3.728  -1.039  -0.435  0.00  0.00    +0.000 OA
BRANCH  25  27
ATOM     27  O   UNL     1      -3.087  -2.964   0.466  0.00  0.00    +0.000 OA
BRANCH  27  29
ATOM     28  C   UNL     1      -4.560  -4.845   0.938  0.00  0.00    +0.000 C 
ATOM     29  C   UNL     1      -4.463  -3.423   0.383  0.00  0.00    +0.000 C 
ENDBRANCH  27  29
ENDBRANCH  25  27
ENDBRANCH  23  25
ENDBRANCH  21  24
ENDBRANCH   1  21
TORSDOF 6
ENDMDL
MODEL       61
REMARK  Name = ZINC04642040
REMARK  7 active torsions:
REMARK  status: ('A' for Active; 'I' for Inactive)
REMARK    1  A    between atoms: C_2  and  C_3
REMARK    2  A    between atoms: C_2  and  N_22
REMARK    3  A    between atoms: N_9  and  C_12
REMARK    4  A    between atoms: C_12  and  C_13
REMARK    5  A    between atoms: C_19  and  C_20
REMARK    6  A    between atoms: C_19  and  N_22
REMARK    7  A    between atoms: C_20  and  O_21
REMARK                            x       y       z     vdW  Elec       q    Type
REMARK                         _______ _______ _______ _____ _____    ______ ____
ROOT
ATOM      1  C   UNL     1       2.878   5.556  -3.423  0.00  0.00    +0.000 A 
ATOM      2  C   UNL     1       3.760   4.484  -4.035  0.00  0.00    +0.000 A 
ATOM      3  O   UNL     1       4.165   4.578  -5.173  0.00  0.00    +0.000 OA
ATOM      4  N   UNL     1       4.076   3.421  -3.264  0.00  0.00    +0.000 N 
ATOM      5  C   UNL     1       3.642   3.305  -2.004  0.00  0.00    +0.000 A 
ATOM      6  O   UNL     1       3.979   2.319  -1.381  0.00  0.00    +0.000 OA
ATOM      7  N   UNL     1       2.858   4.194  -1.383  0.00  0.00    +0.000 N 
ATOM      8  C   UNL     1       2.436   5.323  -1.990  0.00  0.00    +0.000 A 
ATOM      9  O   UNL     1       1.730   6.122  -1.413  0.00  0.00    +0.000 OA
ATOM     10  H   UNL     1       4.670   2.678  -3.659  0.00  0.00    +0.000 HD
ENDROOT
BRANCH   1  12
ATOM     11  C   UNL     1       1.432   6.806  -4.955  0.00  0.00    +0.000 C 
ATOM     12  C   UNL     1       1.645   5.693  -4.277  0.00  0.00    +0.000 C 
BRANCH  12  13
ATOM     13  N   UNL     1       0.744   4.587  -4.314  0.00  0.00    +0.000 NA
ATOM     14  H   UNL     1       1.258   3.758  -4.645  0.00  0.00    +0.000 HD
ATOM     15  H   UNL     1       0.432   4.386  -3.353  0.00  0.00    +0.000 HD
BRANCH  13  16
ATOM     16  C   UNL     1      -0.467   4.782  -5.183  0.00  0.00    +0.000 C 
BRANCH  16  17
ATOM     17  C   UNL     1      -1.298   3.501  -5.090  0.00  0.00    +0.000 C 
BRANCH  17  18
ATOM     18  O   UNL     1      -1.780   3.342  -3.754  0.00  0.00    +0.000 OA
ATOM     19  H   UNL     1      -2.344   4.118  -3.511  0.00  0.00    +0.000 HD
ENDBRANCH  17  18
ENDBRANCH  16  17
ENDBRANCH  13  16
ENDBRANCH  12  13
ENDBRANCH   1  12
BRANCH   7  20
ATOM     20  C   UNL     1       2.451   3.937   0.001  0.00  0.00    +0.000 C 
BRANCH  20  21
ATOM     21  C   UNL     1       1.156   3.165   0.008  0.00  0.00    +0.000 A 
ATOM     22  C   UNL     1       1.175   1.783   0.000  0.00  0.00    +0.000 A 
ATOM     23  C   UNL     1      -0.013   1.076   0.008  0.00  0.00    +0.000 A 
ATOM     24  C   UNL     1      -1.219   1.751   0.017  0.00  0.00    +0.000 A 
ATOM     25  C   UNL     1      -1.238   3.133   0.029  0.00  0.00    +0.000 A 
ATOM     26  C   UNL     1      -0.050   3.840   0.023  0.00  0.00    +0.000 A 
ENDBRANCH  20  21
ENDBRANCH   7  20
TORSDOF 7
ENDMDL
MODEL       62
REMARK  Name = ZINC05131985
REMARK  11 active torsions:
REMARK  status: ('A' for Active; 'I' for Inactive)
REMARK    1  A    between atoms: C_1  and  C_2
REMARK    2  A    between atoms: C_1  and  N_12
REMARK    3  A    between atoms: C_2  and  C_3
REMARK    4  A    between atoms: C_2  and  O_11
REMARK    5  A    between atoms: C_3  and  C_4
REMARK    6  A    between atoms: C_3  and  O_10
REMARK    7  A    between atoms: C_4  and  C_5
REMARK    8  A    between atoms: C_4  and  O_9
REMARK    9  A    between atoms: C_5  and  C_6
REMARK   10  A    between atoms: C_5  and  O_8
REMARK   11  A    between atoms: C_6  and  O_7
REMARK                            x       y       z     vdW  Elec       q    Type
REMARK                         _______ _______ _______ _____ _____    ______ ____
ROOT
ATOM      1  C   UNL     1       1.204   1.464  -2.497  0.00  0.00    +0.000 C 
ENDROOT
BRANCH   1   2
ATOM      2  O   UNL     1       0.969   2.873  -2.545  0.00  0.00    +0.000 OA
ATOM      3  H   UNL     1       0.428   3.092  -3.344  0.00  0.00    +0.000 HD
ENDBRANCH   1   2
BRANCH   1   4
ATOM      4  C   UNL     1       1.957   1.030  -3.756  0.00  0.00    +0.000 C 
BRANCH   4   5
ATOM      5  O   UNL     1       3.254   1.629  -3.765  0.00  0.00    +0.000 OA
ATOM      6  H   UNL     1       3.164   2.614  -3.759  0.00  0.00    +0.000 HD
ENDBRANCH   4   5
BRANCH   4   7
ATOM      7  C   UNL     1       1.180   1.477  -4.995  0.00  0.00    +0.000 C 
BRANCH   7   8
ATOM      8  N   UNL     1       1.837   0.959  -6.198  0.00  0.00    +0.000 NA
ATOM      9  N   UNL     1       1.279   0.275  -6.893  0.00  0.00    +0.000 NA
ATOM     10  N   UNL     1       0.721  -0.410  -7.588  0.00  0.00    +0.000 NA
ENDBRANCH   7   8
ENDBRANCH   4   7
ENDBRANCH   1   4
BRANCH   1  11
ATOM     11  C   UNL     1       2.040   1.127  -1.261  0.00  0.00    +0.000 C 
BRANCH  11  12
ATOM     12  O   UNL     1       2.274  -0.281  -1.213  0.00  0.00    +0.000 OA
ATOM     13  H   UNL     1       2.762  -0.564  -2.027  0.00  0.00    +0.000 HD
ENDBRANCH  11  12
BRANCH  11  14
ATOM     14  C   UNL     1       1.286   1.562  -0.002  0.00  0.00    +0.000 C 
BRANCH  14  15
ATOM     15  O   UNL     1      -0.011   0.963   0.007  0.00  0.00    +0.000 OA
ATOM     16  H   UNL     1       0.080  -0.023   0.001  0.00  0.00    +0.000 HD
ENDBRANCH  14  15
BRANCH  14  17
ATOM     17  C   UNL     1       2.064   1.114   1.238  0.00  0.00    +0.000 C 
BRANCH  17  18
ATOM     18  O   UNL     1       1.422   1.619   2.410  0.00  0.00    +0.000 OA
ATOM     19  H   UNL     1       0.497   1.270   2.458  0.00  0.00    +0.000 HD
ENDBRANCH  17  18
ENDBRANCH  14  17
ENDBRANCH  11  14
ENDBRANCH   1  11
TORSDOF 11
ENDMDL
MODEL       63
REMARK  Name = ZINC05829921
REMARK  8 active torsions:
REMARK  status: ('A' for Active; 'I' for Inactive)
REMARK    1  A    between atoms: C_8  and  C_12
REMARK    2  A    between atoms: C_9  and  O_11
REMARK    3  A    between atoms: N_14  and  C_15
REMARK    4  A    between atoms: C_15  and  C_16
REMARK    5  A    between atoms: C_16  and  N_21
REMARK    6  A    between atoms: C_17  and  C_18
REMARK    7  A    between atoms: C_17  and  N_21
REMARK    8  A    between atoms: C_18  and  O_19
REMARK                            x       y       z     vdW  Elec       q    Type
REMARK                         _______ _______ _______ _____ _____    ______ ____
ROOT
ATOM      1  C   UNL     1      -0.079  -2.804   0.391  0.00  0.00    +0.000 C 
ATOM      2  C   UNL     1      -1.205  -2.151  -0.421  0.00  0.00    +0.000 C 
ATOM      3  C   UNL     1      -1.338  -0.699   0.029  0.00  0.00    +0.000 C 
ATOM      4  C   UNL     1       0.002  -0.004   0.002  0.00  0.00    +0.000 A 
ATOM      5  C   UNL     1       1.162  -0.677  -0.021  0.00  0.00    +0.000 A 
ATOM      6  C   UNL     1       2.393   0.040  -0.023  0.00  0.00    +0.000 A 
ATOM      7  O   UNL     1       3.460  -0.553  -0.033  0.00  0.00    +0.000 OA
ATOM      8  C   UNL     1       2.353   1.505  -0.012  0.00  0.00    +0.000 A 
ATOM      9  C   UNL     1       1.103   2.119   0.003  0.00  0.00    +0.000 A 
ATOM     10  N   UNL     1      -0.017   1.365   0.009  0.00  0.00    +0.000 N 
ATOM     11  C   UNL     1       1.244  -2.181  -0.047  0.00  0.00    +0.000 C 
ATOM     12  H   UNL     1      -0.929   1.842   0.021  0.00  0.00    +0.000 HD
ENDROOT
BRANCH   8  13
ATOM     13  C   UNL     1       3.589   2.297  -0.018  0.00  0.00    +0.000 C 
ATOM     14  O   UNL     1       4.091   2.634  -1.073  0.00  0.00    +0.000 OA
ATOM     15  N   UNL     1       4.167   2.653   1.147  0.00  0.00    +0.000 N 
ATOM     16  H   UNL     1       3.741   2.369   2.041  0.00  0.00    +0.000 HD
BRANCH  15  17
ATOM     17  C   UNL     1       5.399   3.444   1.142  0.00  0.00    +0.000 C 
BRANCH  17  18
ATOM     18  C   UNL     1       5.842   3.709   2.582  0.00  0.00    +0.000 C 
BRANCH  18  19
ATOM     19  N   UNL     1       7.083   4.506   2.568  0.00  0.00    +0.000 N 
ATOM     20  H   UNL     1       7.817   3.986   2.066  0.00  0.00    +0.000 HD
ATOM     21  H   UNL     1       6.911   5.399   2.084  0.00  0.00    +0.000 HD
BRANCH  19  22
ATOM     22  C   UNL     1       7.533   4.777   3.946  0.00  0.00    +0.000 C 
BRANCH  22  23
ATOM     23  C   UNL     1       8.820   5.603   3.900  0.00  0.00    +0.000 C 
BRANCH  23  24
ATOM     24  O   UNL     1       8.544   6.884   3.329  0.00  0.00    +0.000 OA
ATOM     25  H   UNL     1       7.870   7.354   3.882  0.00  0.00    +0.000 HD
ENDBRANCH  23  24
ENDBRANCH  22  23
ENDBRANCH  19  22
ENDBRANCH  18  19
ENDBRANCH  17  18
ENDBRANCH  15  17
ENDBRANCH   8  13
BRANCH   9  26
ATOM     26  O   UNL     1       1.011   3.464   0.010  0.00  0.00    +0.000 OA
ATOM     27  H   UNL     1       1.516   3.758  -0.789  0.00  0.00    +0.000 HD
ENDBRANCH   9  26
TORSDOF 8
ENDMDL
MODEL       64
REMARK  Name = ZINC19504454
REMARK  7 active torsions:
REMARK  status: ('A' for Active; 'I' for Inactive)
REMARK    1  A    between atoms: C_5  and  N_7
REMARK    2  A    between atoms: C_8  and  C_10
REMARK    3  A    between atoms: C_10  and  S_11
REMARK    4  A    between atoms: S_11  and  C_12
REMARK    5  A    between atoms: C_12  and  C_13
REMARK    6  A    between atoms: C_13  and  C_14
REMARK    7  A    between atoms: C_13  and  N_17
REMARK                            x       y       z     vdW  Elec       q    Type
REMARK                         _______ _______ _______ _____ _____    ______ ____
ROOT
ATOM      1  N   UNK     1      -5.129   4.962   4.556  0.00  0.00    +0.000 N 
ATOM      2  C   UNK     1      -4.754   4.505   3.345  0.00  0.00    +0.000 C 
ATOM      3  O   UNK     1      -5.455   4.707   2.377  0.00  0.00    +0.000 OA
ATOM      4  H   UNK     1      -4.570   4.732   5.390  0.00  0.00    +0.000 HD
ENDROOT
BRANCH   1   9
ATOM      5  C   UNK     1      -8.512   6.291   3.995  0.00  0.00    +0.000 A 
ATOM      6  C   UNK     1      -8.552   7.311   4.928  0.00  0.00    +0.000 A 
ATOM      7  C   UNK     1      -7.458   7.554   5.738  0.00  0.00    +0.000 A 
ATOM      8  C   UNK     1      -6.321   6.777   5.618  0.00  0.00    +0.000 A 
ATOM      9  C   UNK     1      -6.279   5.751   4.681  0.00  0.00    +0.000 A 
ATOM     10  C   UNK     1      -7.377   5.514   3.865  0.00  0.00    +0.000 A 
ATOM     11 CL   UNK     1      -4.948   7.082   6.635  0.00  0.00    +0.000 Cl
ENDBRANCH   1   9
BRANCH   2  12
ATOM     12  C   UNK     1      -3.464   3.741   3.195  0.00  0.00    +0.000 C 
BRANCH  12  13
ATOM     13  S   UNK     1      -3.242   3.264   1.459  0.00  0.00    +0.000 S 
BRANCH  13  14
ATOM     14  C   UNK     1      -1.665   2.367   1.448  0.00  0.00    +0.000 C 
BRANCH  14  15
ATOM     15  C   UNK     1      -1.353   1.902   0.025  0.00  0.00    +0.000 C 
BRANCH  15  16
ATOM     16  N   UNK     1      -2.425   1.015  -0.447  0.00  0.00    +0.000 N 
ATOM     17  H   UNK     1      -3.320   1.524  -0.441  0.00  0.00    +0.000 HD
ATOM     18  H   UNK     1      -2.492   0.196   0.174  0.00  0.00    +0.000 HD
ATOM     19  H   UNK     1      -2.215   0.701  -1.405  0.00  0.00    +0.000 HD
ENDBRANCH  15  16
BRANCH  15  20
ATOM     20  C   UNK     1      -0.044   1.156   0.016  0.00  0.00    +0.000 C 
ATOM     21  O   UNK     1      -0.036  -0.052   0.012  0.00  0.00    +0.000 OA
ATOM     22  O   UNK     1       1.115   1.834   0.007  0.00  0.00    +0.000 OA
ENDBRANCH  15  20
ENDBRANCH  14  15
ENDBRANCH  13  14
ENDBRANCH  12  13
ENDBRANCH   2  12
TORSDOF 7
ENDMDL
MODEL       65
REMARK  Name = ZINC05410827
REMARK  8 active torsions:
REMARK  status: ('A' for Active; 'I' for Inactive)
REMARK    1  A    between atoms: C_1  and  C_2
REMARK    2  A    between atoms: C_1  and  N_12
REMARK    3  A    between atoms: C_2  and  S_3
REMARK    4  A    between atoms: C_6  and  C_7
REMARK    5  A    between atoms: C_6  and  N_12
REMARK    6  A    between atoms: C_7  and  C_8
REMARK    7  A    between atoms: C_7  and  S_10
REMARK    8  A    between atoms: C_8  and  S_9
REMARK                            x       y       z     vdW  Elec       q    Type
REMARK                         _______ _______ _______ _____ _____    ______ ____
ROOT
ATOM      1  N   UNL     1      -0.709   1.566   1.217  0.00  0.00    +0.000 N 
ATOM      2  H   UNL     1      -0.726   2.596   1.215  0.00  0.00    +0.000 HD
ATOM      3  H   UNL     1      -1.677   1.213   1.217  0.00  0.00    +0.000 HD
ENDROOT
BRANCH   1   4
ATOM      4  C   UNL     1      -0.013   1.086   0.008  0.00  0.00    +0.000 C 
BRANCH   4   5
ATOM      5  C   UNL     1      -0.753   1.593  -1.232  0.00  0.00    +0.000 C 
BRANCH   5   6
ATOM      6  S   UNL     1       0.096   1.008  -2.724  0.00  0.00    +0.000 S 
ATOM      7  O   UNL     1       1.367   1.632  -2.841  0.00  0.00    +0.000 OA
ATOM      8  O   UNL     1      -0.031  -0.403  -2.838  0.00  0.00    +0.000 OA
ATOM      9  O   UNL     1      -0.719   1.566  -3.882  0.00  0.00    +0.000 OA
ENDBRANCH   5   6
ENDBRANCH   4   5
ENDBRANCH   1   4
BRANCH   1  10
ATOM     10  C   UNL     1      -0.016   1.091   2.429  0.00  0.00    +0.000 C 
BRANCH  10  11
ATOM     11  C   UNL     1      -0.760   1.603   3.664  0.00  0.00    +0.000 C 
BRANCH  11  12
ATOM     12  S   UNL     1      -2.462   0.975   3.649  0.00  0.00    +0.000 S 
ATOM     13  H   UNL     1      -2.444  -0.394   3.663  0.00  0.00    +0.000 HD
ENDBRANCH  11  12
BRANCH  11  14
ATOM     14  C   UNL     1      -0.047   1.115   4.928  0.00  0.00    +0.000 C 
BRANCH  14  15
ATOM     15  S   UNL     1      -0.929   1.723   6.392  0.00  0.00    +0.000 S 
ATOM     16  H   UNL     1      -2.214   1.249   6.382  0.00  0.00    +0.000 HD
ENDBRANCH  14  15
ENDBRANCH  11  14
ENDBRANCH  10  11
ENDBRANCH   1  10
TORSDOF 8
ENDMDL
MODEL       66
REMARK  Name = ZINC05668458
REMARK  8 active torsions:
REMARK  status: ('A' for Active; 'I' for Inactive)
REMARK    1  A    between atoms: C_1  and  C_2
REMARK    2  A    between atoms: C_2  and  N_4
REMARK    3  A    between atoms: N_4  and  N_5
REMARK    4  A    between atoms: N_10  and  C_11
REMARK    5  A    between atoms: C_11  and  C_12
REMARK    6  A    between atoms: C_12  and  O_13
REMARK    7  A    between atoms: O_13  and  C_14
REMARK    8  A    between atoms: N_20  and  C_21
REMARK                            x       y       z     vdW  Elec       q    Type
REMARK                         _______ _______ _______ _____ _____    ______ ____
ROOT
ATOM      1  N   UNL     1       1.225  -0.688  -0.013  0.00  0.00    +0.000 N 
ATOM      2  C   UNL     1       1.244  -2.072  -0.021  0.00  0.00    +0.000 A 
ATOM      3  N   UNL     1       0.138  -2.878  -0.009  0.00  0.00    +0.000 NA
ATOM      4  C   UNL     1       0.571  -4.171  -0.026  0.00  0.00    +0.000 A 
ATOM      5  C   UNL     1       1.958  -4.123  -0.039  0.00  0.00    +0.000 A 
ATOM      6  N   UNL     1       2.322  -2.814  -0.035  0.00  0.00    +0.000 N 
ATOM      7  C   UNL     1       2.695  -5.386  -0.053  0.00  0.00    +0.000 A 
ATOM      8  O   UNL     1       3.913  -5.395  -0.065  0.00  0.00    +0.000 OA
ATOM      9  N   UNL     1       1.996  -6.542  -0.052  0.00  0.00    +0.000 N 
ATOM     10  C   UNL     1       0.653  -6.535  -0.039  0.00  0.00    +0.000 A 
ATOM     11  O   UNL     1       0.061  -7.598  -0.038  0.00  0.00    +0.000 OA
ATOM     12  N   UNL     1      -0.059  -5.395  -0.026  0.00  0.00    +0.000 N 
ATOM     13  C   UNL     1      -1.523  -5.456  -0.013  0.00  0.00    +0.000 C 
ATOM     14  H   UNL     1       2.110  -0.161  -0.019  0.00  0.00    +0.000 HD
ATOM     15  H   UNL     1       2.500  -7.440  -0.062  0.00  0.00    +0.000 HD
ENDROOT
BRANCH   1  16
ATOM     16  N   UNL     1       0.002  -0.004   0.002  0.00  0.00    +0.000 NA
ATOM     17  H   UNL     1      -0.528  -0.329   0.823  0.00  0.00    +0.000 HD
ATOM     18  H   UNL     1      -0.544  -0.321  -0.812  0.00  0.00    +0.000 HD
BRANCH  16  20
ATOM     19  C   UNL     1      -1.332   2.121   0.020  0.00  0.00    +0.000 C 
ATOM     20  C   UNL     1      -0.017   1.385   0.010  0.00  0.00    +0.000 C 
ATOM     21  C   UNL     1       1.117   2.060   0.003  0.00  0.00    +0.000 C 
ENDBRANCH  16  20
ENDBRANCH   1  16
BRANCH   6  22
ATOM     22  C   UNL     1       3.699  -2.314  -0.046  0.00  0.00    +0.000 C 
BRANCH  22  23
ATOM     23  C   UNL     1       4.192  -2.147   1.392  0.00  0.00    +0.000 C 
BRANCH  23  24
ATOM     24  O   UNL     1       5.535  -1.659   1.381  0.00  0.00    +0.000 OA
ATOM     25  C   UNL     1       6.095  -1.468   2.682  0.00  0.00    +0.000 C 
ENDBRANCH  23  24
ENDBRANCH  22  23
ENDBRANCH   6  22
TORSDOF 5
ENDMDL
MODEL       67
REMARK  Name = ZINC05420313
REMARK  10 active torsions:
REMARK  status: ('A' for Active; 'I' for Inactive)
REMARK    1  A    between atoms: C_1  and  C_2
REMARK    2  A    between atoms: C_2  and  C_3
REMARK    3  A    between atoms: C_2  and  C_15
REMARK    4  A    between atoms: C_3  and  N_19
REMARK    5  A    between atoms: C_8  and  C_9
REMARK    6  A    between atoms: C_8  and  N_20
REMARK    7  A    between atoms: C_9  and  C_10
REMARK    8  A    between atoms: C_9  and  C_11
REMARK    9  A    between atoms: N_13  and  O_14
REMARK   10  A    between atoms: N_17  and  O_18
REMARK                            x       y       z     vdW  Elec       q    Type
REMARK                         _______ _______ _______ _____ _____    ______ ____
ROOT
ATOM      1  C   UNL     1      -7.328   1.252   0.740  0.00  0.00    +0.000 C 
ATOM      2  C   UNL     1      -6.035   2.020   0.452  0.00  0.00    +0.000 C 
ATOM      3  C   UNL     1      -5.139   0.082  -0.689  0.00  0.00    +0.000 C 
ATOM      4  C   UNL     1      -6.431  -0.685  -0.401  0.00  0.00    +0.000 C 
ATOM      5  N   UNL     1      -7.554   0.275  -0.345  0.00  0.00    +0.000 N 
ATOM      6  N   UNL     1      -4.913   1.059   0.397  0.00  0.00    +0.000 NA
ATOM      7  H   UNL     1      -7.609   0.778  -1.242  0.00  0.00    +0.000 HD
ENDROOT
BRANCH   6   8
ATOM      8  C   UNL     1      -3.642   1.780   0.172  0.00  0.00    +0.000 C 
BRANCH   8   9
ATOM      9  C   UNL     1      -2.479   0.839   0.494  0.00  0.00    +0.000 C 
ATOM     10  C   UNL     1      -1.157   1.525   0.146  0.00  0.00    +0.000 C 
BRANCH   9  11
ATOM     11  C   UNL     1      -2.498   0.501   1.962  0.00  0.00    +0.000 C 
ATOM     12  O   UNL     1      -3.357   0.967   2.681  0.00  0.00    +0.000 OA
ATOM     13  N   UNL     1      -1.561  -0.319   2.478  0.00  0.00    +0.000 N 
ATOM     14  H   UNL     1      -0.834  -0.718   1.867  0.00  0.00    +0.000 HD
BRANCH  13  15
ATOM     15  O   UNL     1      -1.576  -0.631   3.859  0.00  0.00    +0.000 OA
ATOM     16  H   UNL     1      -2.474  -1.012   4.027  0.00  0.00    +0.000 HD
ENDBRANCH  13  15
ENDBRANCH   9  11
ENDBRANCH   8   9
ENDBRANCH   6   8
BRANCH   5  17
ATOM     17  C   UNL     1      -8.825  -0.446  -0.120  0.00  0.00    +0.000 C 
BRANCH  17  19
ATOM     18  C   UNL     1      -8.999  -0.915  -2.568  0.00  0.00    +0.000 C 
ATOM     19  C   UNL     1      -8.969  -1.545  -1.174  0.00  0.00    +0.000 C 
BRANCH  19  20
ATOM     20  C   UNL     1     -10.251  -2.303  -0.938  0.00  0.00    +0.000 C 
ATOM     21  O   UNL     1     -10.977  -1.993  -0.017  0.00  0.00    +0.000 OA
ATOM     22  N   UNL     1     -10.589  -3.324  -1.750  0.00  0.00    +0.000 N 
ATOM     23  H   UNL     1      -9.973  -3.586  -2.532  0.00  0.00    +0.000 HD
BRANCH  22  24
ATOM     24  O   UNL     1     -11.793  -4.035  -1.528  0.00  0.00    +0.000 OA
ATOM     25  H   UNL     1     -12.506  -3.348  -1.549  0.00  0.00    +0.000 HD
ENDBRANCH  22  24
ENDBRANCH  19  20
ENDBRANCH  17  19
ENDBRANCH   5  17
TORSDOF 8
ENDMDL
MODEL       68
REMARK  Name = ZINC20579698
REMARK  9 active torsions:
REMARK  status: ('A' for Active; 'I' for Inactive)
REMARK    1  A    between atoms: C_1  and  C_2
REMARK    2  A    between atoms: C_2  and  O_3
REMARK    3  A    between atoms: O_3  and  C_4
REMARK    4  A    between atoms: C_9  and  C_10
REMARK    5  A    between atoms: C_10  and  C_11
REMARK    6  A    between atoms: C_11  and  C_12
REMARK    7  A    between atoms: C_11  and  C_14
REMARK    8  A    between atoms: C_12  and  N_13
REMARK    9  A    between atoms: C_18  and  C_20
REMARK                            x       y       z     vdW  Elec       q    Type
REMARK                         _______ _______ _______ _____ _____    ______ ____
ROOT
ATOM      1  C   UNL     1       0.524   1.876   3.008  0.00  0.00    +0.000 A 
ATOM      2  C   UNL     1       0.862   1.379   4.260  0.00  0.00    +0.000 A 
ATOM      3  C   UNL     1       0.115   0.367   4.821  0.00  0.00    +0.000 A 
ATOM      4  C   UNL     1      -0.986  -0.158   4.157  0.00  0.00    +0.000 A 
ATOM      5  C   UNL     1      -1.321   0.346   2.903  0.00  0.00    +0.000 A 
ATOM      6  C   UNL     1      -0.572   1.357   2.336  0.00  0.00    +0.000 A 
ATOM      7  O   UNL     1      -1.591  -1.129   4.897  0.00  0.00    +0.000 OA
ATOM      8  C   UNL     1      -0.669  -1.610   5.890  0.00  0.00    +0.000 C 
ATOM      9  C   UNL     1       0.244  -0.385   6.132  0.00  0.00    +0.000 C 
ATOM     10  C   UNL     1      -1.407  -1.998   7.173  0.00  0.00    +0.000 C 
ENDROOT
BRANCH   6  11
ATOM     11  C   UNL     1      -0.943   1.894   0.978  0.00  0.00    +0.000 C 
BRANCH  11  12
ATOM     12  C   UNL     1      -0.205   1.102  -0.103  0.00  0.00    +0.000 C 
BRANCH  12  13
ATOM     13  C   UNL     1      -0.678   1.547  -1.463  0.00  0.00    +0.000 C 
ATOM     14  O   UNL     1      -1.520   2.409  -1.558  0.00  0.00    +0.000 OA
ATOM     15  O   UNL     1      -0.165   0.986  -2.569  0.00  0.00    +0.000 OA
ENDBRANCH  12  13
BRANCH  12  16
ATOM     16  C   UNL     1       1.300   1.352   0.020  0.00  0.00    +0.000 C 
BRANCH  16  17
ATOM     17  N   UNL     1       2.013   0.545  -0.979  0.00  0.00    +0.000 N 
ATOM     18  H   UNL     1       1.698   0.810  -1.923  0.00  0.00    +0.000 HD
ATOM     19  H   UNL     1       1.817  -0.453  -0.820  0.00  0.00    +0.000 HD
ATOM     20  H   UNL     1       3.026   0.713  -0.897  0.00  0.00    +0.000 HD
ENDBRANCH  16  17
ENDBRANCH  12  16
ENDBRANCH  11  12
ENDBRANCH   6  11
BRANCH   1  21
ATOM     21  O   UNL     1       1.262   2.871   2.447  0.00  0.00    +0.000 OA
BRANCH  21  23
ATOM     22  C   UNL     1       3.079   4.464   2.411  0.00  0.00    +0.000 C 
ATOM     23  C   UNL     1       2.376   3.356   3.198  0.00  0.00    +0.000 C 
ENDBRANCH  21  23
ENDBRANCH   1  21
TORSDOF 7
ENDMDL
MODEL       69
REMARK  Name = ZINC13165761
REMARK  9 active torsions:
REMARK  status: ('A' for Active; 'I' for Inactive)
REMARK    1  A    between atoms: C_1  and  C_2
REMARK    2  A    between atoms: C_2  and  C_3
REMARK    3  A    between atoms: C_3  and  C_4
REMARK    4  A    between atoms: C_3  and  N_5
REMARK    5  A    between atoms: C_8  and  C_14
REMARK    6  A    between atoms: C_15  and  C_16
REMARK    7  A    between atoms: C_15  and  N_19
REMARK    8  A    between atoms: C_16  and  C_17
REMARK    9  A    between atoms: C_17  and  O_18
REMARK                            x       y       z     vdW  Elec       q    Type
REMARK                         _______ _______ _______ _____ _____    ______ ____
ROOT
ATOM      1  N   UNL     1       0.775   1.835  -1.184  0.00  0.00    +0.000 N 
ATOM      2  C   UNL     1      -0.403   1.291  -0.808  0.00  0.00    +0.000 A 
ATOM      3  O   UNL     1      -1.405   1.965  -0.700  0.00  0.00    +0.000 OA
ATOM      4  C   UNL     1      -0.420  -0.202  -0.532  0.00  0.00    +0.000 A 
ATOM      5  C   UNL     1       0.897  -0.931  -0.710  0.00  0.00    +0.000 A 
ATOM      6  O   UNL     1       0.983  -2.128  -0.512  0.00  0.00    +0.000 OA
ATOM      7  N   UNL     1       1.958  -0.220  -1.089  0.00  0.00    +0.000 NA
ATOM      8  C   UNL     1       1.900   1.075  -1.311  0.00  0.00    +0.000 A 
ATOM      9  S   UNL     1       3.341   1.864  -1.794  0.00  0.00    +0.000 SA
ENDROOT
BRANCH   4  10
ATOM     10  C   UNL     1      -0.879  -0.411   0.888  0.00  0.00    +0.000 C 
ATOM     11  N   UNL     1      -1.971  -1.120   1.069  0.00  0.00    +0.000 N 
ATOM     12  H   UNL     1      -2.475  -1.507   0.259  0.00  0.00    +0.000 HD
BRANCH  11  13
ATOM     13  C   UNL     1      -2.484  -1.367   2.461  0.00  0.00    +0.000 C 
BRANCH  13  14
ATOM     14  C   UNL     1      -3.849  -0.690   2.602  0.00  0.00    +0.000 C 
BRANCH  14  15
ATOM     15  C   UNL     1      -4.417  -0.973   3.994  0.00  0.00    +0.000 C 
BRANCH  15  16
ATOM     16  O   UNL     1      -5.691  -0.340   4.126  0.00  0.00    +0.000 OA
ATOM     17  H   UNL     1      -6.310  -0.696   3.440  0.00  0.00    +0.000 HD
ENDBRANCH  15  16
ENDBRANCH  14  15
ENDBRANCH  13  14
ENDBRANCH  11  13
ENDBRANCH   4  10
BRANCH   1  18
ATOM     18  C   UNL     1       0.845   3.272  -1.463  0.00  0.00    +0.000 C 
ATOM     19  C   UNL     1       0.463   4.054  -0.204  0.00  0.00    +0.000 C 
BRANCH  18  21
ATOM     20  C   UNL     1       0.323   2.926  -3.882  0.00  0.00    +0.000 C 
ATOM     21  C   UNL     1      -0.125   3.620  -2.594  0.00  0.00    +0.000 C 
ENDBRANCH  18  21
ENDBRANCH   1  18
TORSDOF 7
ENDMDL
MODEL       70
REMARK  Name = ZINC30971375
REMARK  10 active torsions:
REMARK  status: ('A' for Active; 'I' for Inactive)
REMARK    1  A    between atoms: C_1  and  C_2
REMARK    2  A    between atoms: C_2  and  C_3
REMARK    3  A    between atoms: C_3  and  C_21
REMARK    4  A    between atoms: N_6  and  N_10
REMARK    5  A    between atoms: C_11  and  C_13
REMARK    6  A    between atoms: C_13  and  N_14
REMARK    7  A    between atoms: N_14  and  C_15
REMARK    8  A    between atoms: N_14  and  C_16
REMARK    9  A    between atoms: C_16  and  C_17
REMARK   10  A    between atoms: C_16  and  C_18
REMARK                            x       y       z     vdW  Elec       q    Type
REMARK                         _______ _______ _______ _____ _____    ______ ____
ROOT
ATOM      1  N   UNL     1       0.065   1.704   0.793  0.00  0.00    +0.000 N 
ATOM      2  C   UNL     1      -1.157   2.219   0.550  0.00  0.00    +0.000 C 
ATOM      3  O   UNL     1      -1.302   3.420   0.463  0.00  0.00    +0.000 OA
ATOM      4  H   UNL     1       0.187   0.684   0.872  0.00  0.00    +0.000 HD
ENDROOT
BRANCH   1   8
ATOM      5  C   UNL     1       3.097   3.727   0.586  0.00  0.00    +0.000 C 
ATOM      6  C   UNL     1       2.120   2.727  -0.001  0.00  0.00    +0.000 C 
ATOM      7  O   UNL     1       2.181   2.194  -1.088  0.00  0.00    +0.000 OA
ATOM      8  N   UNL     1       1.168   2.555   0.938  0.00  0.00    +0.000 N 
ATOM      9  C   UNL     1       1.409   3.294   2.027  0.00  0.00    +0.000 C 
ATOM     10  O   UNL     1       0.693   3.304   3.009  0.00  0.00    +0.000 OA
ATOM     11  N   UNL     1       2.533   4.024   1.913  0.00  0.00    +0.000 NA
ATOM     12  C   UNL     1       4.487   3.100   0.719  0.00  0.00    +0.000 C 
BRANCH   5  14
ATOM     13  C   UNL     1       4.074   6.019   0.406  0.00  0.00    +0.000 C 
ATOM     14  C   UNL     1       3.160   4.994  -0.269  0.00  0.00    +0.000 C 
ENDBRANCH   5  14
ENDBRANCH   1   8
BRANCH   2  15
ATOM     15  C   UNL     1      -2.342   1.303   0.389  0.00  0.00    +0.000 C 
BRANCH  15  16
ATOM     16  N   UNL     1      -3.548   2.102   0.134  0.00  0.00    +0.000 N 
ATOM     17  C   UNL     1      -3.459   2.791  -1.160  0.00  0.00    +0.000 C 
ATOM     18  H   UNL     1      -3.614   2.820   0.871  0.00  0.00    +0.000 HD
BRANCH  16  19
ATOM     19  C   UNL     1      -4.756   1.270   0.206  0.00  0.00    +0.000 C 
ATOM     20  C   UNL     1      -4.604   0.069  -0.728  0.00  0.00    +0.000 C 
BRANCH  19  21
ATOM     21  C   UNL     1      -4.952   0.778   1.642  0.00  0.00    +0.000 C 
ATOM     22  C   UNL     1      -4.862  -0.728   1.891  0.00  0.00    +0.000 C 
ATOM     23  C   UNL     1      -6.219  -0.024   1.947  0.00  0.00    +0.000 C 
ENDBRANCH  19  21
ENDBRANCH  16  19
ENDBRANCH  15  16
ENDBRANCH   2  15
TORSDOF 6
ENDMDL
MODEL       71
REMARK  Name = ZINC06193540
REMARK  8 active torsions:
REMARK  status: ('A' for Active; 'I' for Inactive)
REMARK    1  A    between atoms: C_1  and  C_2
REMARK    2  A    between atoms: C_2  and  N_20
REMARK    3  A    between atoms: C_3  and  C_4
REMARK    4  A    between atoms: C_3  and  N_20
REMARK    5  A    between atoms: C_5  and  C_6
REMARK    6  A    between atoms: C_5  and  N_20
REMARK    7  A    between atoms: C_6  and  N_7
REMARK    8  A    between atoms: N_7  and  C_8
REMARK                            x       y       z     vdW  Elec       q    Type
REMARK                         _______ _______ _______ _____ _____    ______ ____
ROOT
ATOM      1  C   UNL     1       0.078   1.359   0.389  0.00  0.00    +0.000 A 
ATOM      2  C   UNL     1       1.248   2.107   0.203  0.00  0.00    +0.000 A 
ATOM      3  C   UNL     1       1.177   3.483   0.221  0.00  0.00    +0.000 A 
ATOM      4  C   UNL     1      -1.107   3.468   0.591  0.00  0.00    +0.000 A 
ATOM      5  C   UNL     1      -1.122   2.060   0.581  0.00  0.00    +0.000 A 
ATOM      6  C   UNL     1      -2.395   1.352   0.790  0.00  0.00    +0.000 C 
ATOM      7  O   UNL     1      -2.440   0.139   0.792  0.00  0.00    +0.000 OA
ATOM      8  C   UNL     1      -3.634   2.168   0.995  0.00  0.00    +0.000 C 
ATOM      9  O   UNL     1      -4.707   1.621   1.166  0.00  0.00    +0.000 OA
ATOM     10  C   UNL     1      -3.547   3.572   0.987  0.00  0.00    +0.000 C 
ATOM     11  C   UNL     1      -2.366   4.212   0.799  0.00  0.00    +0.000 C 
ATOM     12  O   UNL     1      -2.341   5.563   0.801  0.00  0.00    +0.000 OA
ATOM     13  N   UNL     1       0.034   4.199   0.409  0.00  0.00    +0.000 N 
ATOM     14  H   UNL     1       0.029   5.229   0.415  0.00  0.00    +0.000 HD
ENDROOT
BRANCH   1  15
ATOM     15  N   UNL     1       0.104  -0.022   0.379  0.00  0.00    +0.000 N 
ATOM     16  H   UNL     1      -0.748  -0.555   0.606  0.00  0.00    +0.000 HD
BRANCH  15  17
ATOM     17  C   UNL     1       1.343  -0.729   0.045  0.00  0.00    +0.000 C 
BRANCH  17  18
ATOM     18  C   UNL     1       1.101  -2.238   0.106  0.00  0.00    +0.000 C 
BRANCH  18  19
ATOM     19  N   UNL     1       2.380  -2.933  -0.155  0.00  0.00    +0.000 N 
ATOM     20  H   UNL     1       2.867  -2.458  -0.927  0.00  0.00    +0.000 HD
BRANCH  19  21
ATOM     21  C   UNL     1       2.122  -4.337  -0.541  0.00  0.00    +0.000 C 
ATOM     22  C   UNL     1       1.656  -4.367  -1.998  0.00  0.00    +0.000 C 
ENDBRANCH  19  21
BRANCH  19  24
ATOM     23  C   UNL     1       4.625  -3.413   0.690  0.00  0.00    +0.000 C 
ATOM     24  C   UNL     1       3.233  -2.890   1.051  0.00  0.00    +0.000 C 
ENDBRANCH  19  24
ENDBRANCH  18  19
ENDBRANCH  17  18
ENDBRANCH  15  17
ENDBRANCH   1  15
TORSDOF 6
ENDMDL
MODEL       72
REMARK  Name = ZINC00518508
REMARK  10 active torsions:
REMARK  status: ('A' for Active; 'I' for Inactive)
REMARK    1  A    between atoms: C_1  and  N_2
REMARK    2  A    between atoms: N_9  and  C_14
REMARK    3  A    between atoms: N_12  and  C_13
REMARK    4  A    between atoms: C_14  and  C_15
REMARK    5  A    between atoms: C_15  and  N_21
REMARK    6  A    between atoms: CA_16  and  C_17
REMARK    7  A    between atoms: CA_16  and  CB_19
REMARK    8  A    between atoms: CA_16  and  N_21
REMARK    9  A    between atoms: C_17  and  O_18
REMARK   10  A    between atoms: CB_19  and  OG_20
REMARK                            x       y       z     vdW  Elec       q    Type
REMARK                         _______ _______ _______ _____ _____    ______ ____
ROOT
ATOM      1  C   UNL     1       3.845  -4.753  -0.873  0.00  0.00    +0.000 C 
ATOM      2  N   UNL     1       2.655  -4.993  -0.053  0.00  0.00    +0.000 N 
ATOM      3  C   UNL     1       2.152  -6.193   0.297  0.00  0.00    +0.000 A 
ATOM      4  N   UNL     1       1.082  -6.026   1.032  0.00  0.00    +0.000 NA
ATOM      5  C   UNL     1       0.843  -4.722   1.193  0.00  0.00    +0.000 A 
ATOM      6  C   UNL     1       1.836  -4.034   0.507  0.00  0.00    +0.000 A 
ATOM      7  C   UNL     1       1.823  -2.622   0.511  0.00  0.00    +0.000 A 
ATOM      8  O   UNL     1       2.683  -1.996  -0.082  0.00  0.00    +0.000 OA
ATOM      9  N   UNL     1       0.846  -1.974   1.180  0.00  0.00    +0.000 N 
ATOM     10  C   UNL     1      -0.106  -2.653   1.843  0.00  0.00    +0.000 A 
ATOM     11  O   UNL     1      -0.968  -2.036   2.439  0.00  0.00    +0.000 OA
ATOM     12  N   UNL     1      -0.132  -3.999   1.861  0.00  0.00    +0.000 N 
ATOM     13  C   UNL     1      -1.191  -4.700   2.591  0.00  0.00    +0.000 C 
ENDROOT
BRANCH   9  14
ATOM     14  C   UNL     1       0.826  -0.509   1.188  0.00  0.00    +0.000 C 
BRANCH  14  15
ATOM     15  C   ACE A   0       0.002  -0.004   0.002  0.00  0.00    +0.000 C 
BRANCH  15  16
ATOM     16  N   UNL     1      -0.013   1.471   0.017  0.00  0.00    +0.000 N 
ATOM     17  H1  UNL     1       0.952   1.824  -0.050  0.00  0.00    +0.000 HD
ATOM     18  H2  UNL     1      -0.431   1.799   0.900  0.00  0.00    +0.000 HD
BRANCH  16  19
ATOM     19  CA  UNL     1      -0.802   1.987  -1.117  0.00  0.00    +0.000 C 
BRANCH  19  20
ATOM     20  CB  UNL     1      -0.323   3.399  -1.461  0.00  0.00    +0.000 C 
BRANCH  20  21
ATOM     21  O   UNL     1      -0.602   4.276  -0.368  0.00  0.00    +0.000 OA
ATOM     22  H   UNL     1      -0.131   3.956   0.442  0.00  0.00    +0.000 HD
ENDBRANCH  20  21
ENDBRANCH  19  20
BRANCH  19  23
ATOM     23  C   UNL     1      -2.282   2.030  -0.733  0.00  0.00    +0.000 C 
BRANCH  23  24
ATOM     24  O   UNL     1      -2.471   2.970   0.327  0.00  0.00    +0.000 OA
ATOM     25  H   UNL     1      -2.183   3.868   0.028  0.00  0.00    +0.000 HD
ENDBRANCH  23  24
ENDBRANCH  19  23
ENDBRANCH  16  19
ENDBRANCH  15  16
ENDBRANCH  14  15
ENDBRANCH   9  14
TORSDOF 8
ENDMDL
MODEL       73
REMARK  Name = ZINC27406265
REMARK  10 active torsions:
REMARK  status: ('A' for Active; 'I' for Inactive)
REMARK    1  A    between atoms: N_3  and  C_11
REMARK    2  A    between atoms: C_6  and  N_10
REMARK    3  A    between atoms: C_11  and  C_12
REMARK    4  A    between atoms: C_11  and  O_14
REMARK    5  A    between atoms: C_12  and  O_13
REMARK    6  A    between atoms: O_14  and  C_15
REMARK    7  A    between atoms: C_15  and  C_16
REMARK    8  A    between atoms: C_15  and  C_18
REMARK    9  A    between atoms: C_16  and  O_17
REMARK   10  A    between atoms: C_18  and  O_19
REMARK                            x       y       z     vdW  Elec       q    Type
REMARK                         _______ _______ _______ _____ _____    ______ ____
ROOT
ATOM      1  C   UNL     1      -0.210   3.917   0.859  0.00  0.00    +0.000 A 
ATOM      2  C   UNL     1      -0.830   5.070   0.560  0.00  0.00    +0.000 A 
ATOM      3  N   UNL     1      -2.185   4.869   0.509  0.00  0.00    +0.000 N 
ATOM      4  C   UNL     1      -2.475   3.560   0.778  0.00  0.00    +0.000 A 
ATOM      5  C   UNL     1      -1.252   2.905   1.015  0.00  0.00    +0.000 A 
ATOM      6  C   UNL     1      -1.270   1.533   1.311  0.00  0.00    +0.000 A 
ATOM      7  N   UNL     1      -2.446   0.914   1.365  0.00  0.00    +0.000 NA
ATOM      8  C   UNL     1      -3.571   1.569   1.140  0.00  0.00    +0.000 A 
ATOM      9  N   UNL     1      -3.601   2.853   0.854  0.00  0.00    +0.000 NA
ENDROOT
BRANCH   6  10
ATOM     10  N   UNL     1      -0.094   0.844   1.548  0.00  0.00    +0.000 N 
ATOM     11  H   UNL     1       0.804   1.346   1.505  0.00  0.00    +0.000 HD
ATOM     12  H   UNL     1      -0.115  -0.163   1.765  0.00  0.00    +0.000 HD
ENDBRANCH   6  10
BRANCH   3  13
ATOM     13  C   UNL     1      -3.177   5.905   0.210  0.00  0.00    +0.000 C 
BRANCH  13  14
ATOM     14  C   UNL     1      -3.517   5.871  -1.281  0.00  0.00    +0.000 C 
BRANCH  14  15
ATOM     15  O   UNL     1      -2.316   5.993  -2.046  0.00  0.00    +0.000 OA
ATOM     16  H   UNL     1      -1.708   5.242  -1.829  0.00  0.00    +0.000 HD
ENDBRANCH  14  15
ENDBRANCH  13  14
BRANCH  13  17
ATOM     17  O   UNL     1      -2.644   7.187   0.549  0.00  0.00    +0.000 OA
BRANCH  17  18
ATOM     18  C   UNL     1      -3.637   8.163   0.870  0.00  0.00    +0.000 C 
BRANCH  18  19
ATOM     19  C   UNL     1      -3.868   8.177   2.382  0.00  0.00    +0.000 C 
BRANCH  19  20
ATOM     20  O   UNL     1      -2.679   8.617   3.042  0.00  0.00    +0.000 OA
ATOM     21  H   UNL     1      -2.449   9.529   2.735  0.00  0.00    +0.000 HD
ENDBRANCH  19  20
ENDBRANCH  18  19
BRANCH  18  22
ATOM     22  C   UNL     1      -3.161   9.544   0.414  0.00  0.00    +0.000 C 
BRANCH  22  23
ATOM     23  O   UNL     1      -1.984   9.905   1.138  0.00  0.00    +0.000 OA
ATOM     24  H   UNL     1      -1.272   9.238   0.967  0.00  0.00    +0.000 HD
ENDBRANCH  22  23
ENDBRANCH  18  22
ENDBRANCH  17  18
ENDBRANCH  13  17
ENDBRANCH   3  13
TORSDOF 10
ENDMDL
MODEL       74
REMARK  Name = ZINC20269727
REMARK  7 active torsions:
REMARK  status: ('A' for Active; 'I' for Inactive)
REMARK    1  A    between atoms: C_4  and  N_7
REMARK    2  A    between atoms: N_7  and  S_8
REMARK    3  A    between atoms: S_8  and  C_11
REMARK    4  A    between atoms: C_14  and  C_17
REMARK    5  A    between atoms: C_17  and  C_18
REMARK    6  A    between atoms: C_18  and  C_19
REMARK    7  A    between atoms: C_19  and  N_20
REMARK                            x       y       z     vdW  Elec       q    Type
REMARK                         _______ _______ _______ _____ _____    ______ ____
ROOT
ATOM      1  C   UNL     1       5.197   1.332   0.853  0.00  0.00    +0.000 A 
ATOM      2  C   UNL     1       4.692   2.613   0.729  0.00  0.00    +0.000 A 
ATOM      3  C   UNL     1       4.916   3.544   1.726  0.00  0.00    +0.000 A 
ATOM      4  C   UNL     1       5.653   3.197   2.843  0.00  0.00    +0.000 A 
ATOM      5  C   UNL     1       6.163   1.917   2.965  0.00  0.00    +0.000 A 
ATOM      6  C   UNL     1       5.935   0.985   1.970  0.00  0.00    +0.000 A 
ENDROOT
BRANCH   1   7
ATOM      7  S   UNL     1       4.907   0.144  -0.415  0.00  0.00    +0.000 S 
ATOM      8  O   UNL     1       5.951  -0.816  -0.319  0.00  0.00    +0.000 OA
ATOM      9  O   UNL     1       4.653   0.876  -1.607  0.00  0.00    +0.000 OA
BRANCH   7  10
ATOM     10  N   UNL     1       3.502  -0.645  -0.035  0.00  0.00    +0.000 NA
BRANCH  10  14
ATOM     11  C   UNL     1      -0.017   1.382   0.010  0.00  0.00    +0.000 A 
ATOM     12  C   UNL     1       1.192   2.061   0.002  0.00  0.00    +0.000 A 
ATOM     13  N   UNL     1       2.320   1.371  -0.013  0.00  0.00    +0.000 NA
ATOM     14  C   UNL     1       2.303   0.046  -0.020  0.00  0.00    +0.000 A 
ATOM     15  N   UNL     1       1.165  -0.633  -0.013  0.00  0.00    +0.000 NA
ATOM     16  C   UNL     1       0.002  -0.004   0.002  0.00  0.00    +0.000 A 
ENDBRANCH  10  14
ENDBRANCH   7  10
ENDBRANCH   1   7
BRANCH   4  17
ATOM     17  C   UNL     1       5.900   4.213   3.929  0.00  0.00    +0.000 C 
BRANCH  17  18
ATOM     18  C   UNL     1       7.192   4.975   3.629  0.00  0.00    +0.000 C 
BRANCH  18  19
ATOM     19  C   UNL     1       7.443   6.006   4.731  0.00  0.00    +0.000 C 
BRANCH  19  20
ATOM     20  N   UNL     1       8.684   6.738   4.443  0.00  0.00    +0.000 N 
ATOM     21  H   UNL     1       8.598   7.219   3.537  0.00  0.00    +0.000 HD
ATOM     22  H   UNL     1       9.473   6.077   4.406  0.00  0.00    +0.000 HD
ATOM     23  H   UNL     1       8.854   7.432   5.184  0.00  0.00    +0.000 HD
ENDBRANCH  19  20
ENDBRANCH  18  19
ENDBRANCH  17  18
ENDBRANCH   4  17
TORSDOF 7
ENDMDL
MODEL       75
REMARK  Name = ZINC20236076
REMARK  10 active torsions:
REMARK  status: ('A' for Active; 'I' for Inactive)
REMARK    1  A    between atoms: C_1  and  N_2
REMARK    2  A    between atoms: N_2  and  C_3
REMARK    3  A    between atoms: N_2  and  S_4
REMARK    4  A    between atoms: S_4  and  N_7
REMARK    5  A    between atoms: N_7  and  C_8
REMARK    6  A    between atoms: N_7  and  C_11
REMARK    7  A    between atoms: C_8  and  C_9
REMARK    8  A    between atoms: C_9  and  N_10
REMARK    9  A    between atoms: C_14  and  O_17
REMARK   10  A    between atoms: O_17  and  C_18
REMARK                            x       y       z     vdW  Elec       q    Type
REMARK                         _______ _______ _______ _____ _____    ______ ____
ROOT
ATOM      1  N   UNL     1      -0.872   1.871   1.353  0.00  0.00    +0.000 N 
ENDROOT
BRANCH   1   2
ATOM      2  C   UNL     1      -0.591   3.089   1.983  0.00  0.00    +0.000 A 
ATOM      3  C   UNL     1      -1.620   3.973   2.277  0.00  0.00    +0.000 A 
ATOM      4  C   UNL     1      -1.342   5.172   2.904  0.00  0.00    +0.000 A 
ATOM      5  C   UNL     1      -0.034   5.498   3.229  0.00  0.00    +0.000 A 
ATOM      6  C   UNL     1       0.996   4.618   2.930  0.00  0.00    +0.000 A 
ATOM      7  C   UNL     1       0.719   3.416   2.309  0.00  0.00    +0.000 A 
BRANCH   5   8
ATOM      8  O   UNL     1       0.240   6.681   3.841  0.00  0.00    +0.000 OA
ATOM      9  C   UNL     1      -0.868   7.540   4.118  0.00  0.00    +0.000 C 
ENDBRANCH   5   8
ENDBRANCH   1   2
BRANCH   1  10
ATOM     10  S   UNL     1      -0.201   1.527  -0.121  0.00  0.00    +0.000 S 
ATOM     11  O   UNL     1      -0.062   0.114  -0.184  0.00  0.00    +0.000 OA
ATOM     12  O   UNL     1       0.901   2.409  -0.282  0.00  0.00    +0.000 OA
BRANCH  10  14
ATOM     13  C   UNL     1      -1.315   3.299  -1.834  0.00  0.00    +0.000 C 
ATOM     14  N   UNL     1      -1.314   1.945  -1.274  0.00  0.00    +0.000 NA
ATOM     15  C   UNL     1      -2.296   0.961  -1.735  0.00  0.00    +0.000 C 
ENDBRANCH  10  14
ENDBRANCH   1  10
BRANCH   1  16
ATOM     16  C   UNL     1      -1.760   0.901   1.998  0.00  0.00    +0.000 C 
BRANCH  16  17
ATOM     17  C   UNL     1      -0.954   0.042   2.974  0.00  0.00    +0.000 C 
BRANCH  17  18
ATOM     18  N   UNL     1      -1.844  -0.931   3.621  0.00  0.00    +0.000 N 
ATOM     19  H   UNL     1      -2.272  -1.536   2.905  0.00  0.00    +0.000 HD
ATOM     20  H   UNL     1      -2.584  -0.432   4.135  0.00  0.00    +0.000 HD
ATOM     21  H   UNL     1      -1.302  -1.510   4.279  0.00  0.00    +0.000 HD
ENDBRANCH  17  18
ENDBRANCH  16  17
ENDBRANCH   1  16
TORSDOF 7
ENDMDL
MODEL       76
REMARK  Name = ZINC00000729
REMARK  12 active torsions:
REMARK  status: ('A' for Active; 'I' for Inactive)
REMARK    1  A    between atoms: C_1  and  C_2
REMARK    2  A    between atoms: C_2  and  C_3
REMARK    3  A    between atoms: C_2  and  C_4
REMARK    4  A    between atoms: C_2  and  N_20
REMARK    5  A    between atoms: C_5  and  C_6
REMARK    6  A    between atoms: C_5  and  N_20
REMARK    7  A    between atoms: C_6  and  C_7
REMARK    8  A    between atoms: C_6  and  O_19
REMARK    9  A    between atoms: C_10  and  O_18
REMARK   10  A    between atoms: C_11  and  C_13
REMARK   11  A    between atoms: C_13  and  S_14
REMARK   12  A    between atoms: S_14  and  C_17
REMARK                            x       y       z     vdW  Elec       q    Type
REMARK                         _______ _______ _______ _____ _____    ______ ____
ROOT
ATOM      1  C   UNL     1       0.040  -2.770  -0.013  0.00  0.00    +0.000 A 
ATOM      2  C   UNL     1       0.019  -2.074  -1.208  0.00  0.00    +0.000 A 
ATOM      3  C   UNL     1      -0.006  -0.693  -1.203  0.00  0.00    +0.000 A 
ATOM      4  C   UNL     1       0.002  -0.004   0.002  0.00  0.00    +0.000 A 
ATOM      5  C   UNL     1       0.023  -0.705   1.199  0.00  0.00    +0.000 A 
ATOM      6  C   UNL     1       0.042  -2.087   1.188  0.00  0.00    +0.000 A 
ENDROOT
BRANCH   4   7
ATOM      7  O   UNL     1      -0.016   1.355   0.009  0.00  0.00    +0.000 OA
ATOM      8  H   UNL     1      -0.823   1.601  -0.508  0.00  0.00    +0.000 HD
ENDBRANCH   4   7
BRANCH   1   9
ATOM      9  C   UNL     1       0.060  -4.277  -0.021  0.00  0.00    +0.000 C 
BRANCH   9  10
ATOM     10  O   UNL     1       0.923  -4.736  -1.064  0.00  0.00    +0.000 OA
ATOM     11  H   UNL     1       0.592  -4.406  -1.937  0.00  0.00    +0.000 HD
ENDBRANCH   9  10
BRANCH   9  12
ATOM     12  C   UNL     1      -1.356  -4.805  -0.261  0.00  0.00    +0.000 C 
BRANCH  12  13
ATOM     13  N   UNL     1      -1.349  -6.276  -0.148  0.00  0.00    +0.000 N 
ATOM     14  H   UNL     1      -1.028  -6.544   0.793  0.00  0.00    +0.000 HD
ATOM     15  H   UNL     1      -0.703  -6.668  -0.849  0.00  0.00    +0.000 HD
BRANCH  13  17
ATOM     16  C   UNL     1      -3.182  -6.427  -1.776  0.00  0.00    +0.000 C 
ATOM     17  C   UNL     1      -2.704  -6.813  -0.376  0.00  0.00    +0.000 C 
ATOM     18  C   UNL     1      -2.665  -8.338  -0.252  0.00  0.00    +0.000 C 
ATOM     19  C   UNL     1      -3.665  -6.241   0.668  0.00  0.00    +0.000 C 
ENDBRANCH  13  17
ENDBRANCH  12  13
ENDBRANCH   9  12
ENDBRANCH   1   9
BRANCH   5  20
ATOM     20  C   UNL     1       0.025   0.039   2.509  0.00  0.00    +0.000 C 
BRANCH  20  21
ATOM     21  S   UNL     1      -1.685   0.314   3.050  0.00  0.00    +0.000 S 
ATOM     22  O   UNL     1      -2.317   1.183   2.120  0.00  0.00    +0.000 OA
ATOM     23  O   UNL     1      -2.276  -0.947   3.330  0.00  0.00    +0.000 OA
ATOM     24  C   UNL     1      -1.471   1.207   4.615  0.00  0.00    +0.000 C 
ENDBRANCH  20  21
ENDBRANCH   5  20
TORSDOF 8
ENDMDL
MODEL       77
REMARK  Name = ZINC05839813
REMARK  7 active torsions:
REMARK  status: ('A' for Active; 'I' for Inactive)
REMARK    1  A    between atoms: C_3  and  N_16
REMARK    2  A    between atoms: C_6  and  C_7
REMARK    3  A    between atoms: C_7  and  C_9
REMARK    4  A    between atoms: C_9  and  C_10
REMARK    5  A    between atoms: C_10  and  C_11
REMARK    6  A    between atoms: C_11  and  C_12
REMARK    7  A    between atoms: C_12  and  C_13
REMARK                            x       y       z     vdW  Elec       q    Type
REMARK                         _______ _______ _______ _____ _____    ______ ____
ROOT
ATOM      1  C   UNL     1      -0.753   1.593  -1.232  0.00  0.00    +0.000 C 
ATOM      2  C   UNL     1      -0.013   1.086   0.008  0.00  0.00    +0.000 C 
ATOM      3  C   UNL     1      -0.729   1.579   1.267  0.00  0.00    +0.000 C 
ATOM      4  C   UNL     1      -0.750   3.109   1.275  0.00  0.00    +0.000 C 
ATOM      5  C   UNL     1      -1.490   3.616   0.036  0.00  0.00    +0.000 C 
ATOM      6  C   UNL     1      -0.773   3.123  -1.223  0.00  0.00    +0.000 C 
ENDROOT
BRANCH   3   7
ATOM      7  N   UNL     1       0.004   1.104   2.454  0.00  0.00    +0.000 N 
ATOM      8  H   UNL     1       0.965   1.473   2.440  0.00  0.00    +0.000 HD
ATOM      9  H   UNL     1       0.031   0.074   2.457  0.00  0.00    +0.000 HD
ATOM     10  H   UNL     1      -0.475   1.434   3.304  0.00  0.00    +0.000 HD
ENDBRANCH   3   7
BRANCH   6  11
ATOM     11  C   UNL     1      -1.502   3.622  -2.444  0.00  0.00    +0.000 C 
ATOM     12  O   UNL     1      -2.386   2.960  -2.932  0.00  0.00    +0.000 OA
BRANCH  11  13
ATOM     13  C   UNL     1      -1.128   4.947  -3.056  0.00  0.00    +0.000 C 
BRANCH  13  14
ATOM     14  C   UNL     1      -2.014   5.215  -4.274  0.00  0.00    +0.000 C 
BRANCH  14  15
ATOM     15  C   UNL     1      -1.633   6.561  -4.895  0.00  0.00    +0.000 C 
BRANCH  15  16
ATOM     16  C   UNL     1      -2.519   6.828  -6.114  0.00  0.00    +0.000 C 
BRANCH  16  17
ATOM     17  C   UNL     1      -2.145   8.154  -6.725  0.00  0.00    +0.000 C 
ATOM     18  O   UNL     1      -1.260   8.816  -6.237  0.00  0.00    +0.000 OA
ATOM     19  O   UNL     1      -2.794   8.598  -7.813  0.00  0.00    +0.000 OA
ENDBRANCH  16  17
ENDBRANCH  15  16
ENDBRANCH  14  15
ENDBRANCH  13  14
ENDBRANCH  11  13
ENDBRANCH   6  11
TORSDOF 7
ENDMDL
MODEL       78
REMARK  Name = ZINC20203715
REMARK  8 active torsions:
REMARK  status: ('A' for Active; 'I' for Inactive)
REMARK    1  A    between atoms: C_1  and  C_2
REMARK    2  A    between atoms: C_2  and  C_3
REMARK    3  A    between atoms: C_2  and  N_13
REMARK    4  A    between atoms: N_13  and  C_14
REMARK    5  A    between atoms: C_14  and  C_15
REMARK    6  A    between atoms: C_15  and  N_16
REMARK    7  A    between atoms: N_16  and  S_17
REMARK    8  A    between atoms: S_17  and  C_20
REMARK                            x       y       z     vdW  Elec       q    Type
REMARK                         _______ _______ _______ _____ _____    ______ ____
ROOT
ATOM      1  C   UNL     1       1.473  -2.681  -1.446  0.00  0.00    +0.000 C 
ATOM      2  C   UNL     1       1.230  -2.182  -0.021  0.00  0.00    +0.000 C 
ENDROOT
BRANCH   2   3
ATOM      3  C   UNL     1       1.209  -0.675  -0.013  0.00  0.00    +0.000 A 
ATOM      4  C   UNL     1       2.400   0.030  -0.021  0.00  0.00    +0.000 A 
ATOM      5  C   UNL     1       2.391   1.412  -0.013  0.00  0.00    +0.000 A 
ATOM      6  C   UNL     1       1.185   2.094   0.002  0.00  0.00    +0.000 A 
ATOM      7  C   UNL     1      -0.017   1.382   0.010  0.00  0.00    +0.000 A 
ATOM      8  C   UNL     1       0.002  -0.004   0.002  0.00  0.00    +0.000 A 
ATOM      9  N   UNL     1      -1.043   2.324   0.019  0.00  0.00    +0.000 N 
ATOM     10  C   UNL     1      -0.491   3.553   0.025  0.00  0.00    +0.000 A 
ATOM     11  O   UNL     1      -1.111   4.599   0.035  0.00  0.00    +0.000 OA
ATOM     12  N   UNL     1       0.851   3.446   0.012  0.00  0.00    +0.000 N 
ATOM     13  H   UNL     1      -2.052   2.117   0.021  0.00  0.00    +0.000 HD
ATOM     14  H   UNL     1       1.518   4.232   0.009  0.00  0.00    +0.000 HD
ENDBRANCH   2   3
BRANCH   2  15
ATOM     15  N   UNL     1       2.306  -2.662   0.857  0.00  0.00    +0.000 N 
ATOM     16  H   UNL     1       3.192  -2.672   0.332  0.00  0.00    +0.000 HD
ATOM     17  H   UNL     1       2.402  -2.022   1.658  0.00  0.00    +0.000 HD
BRANCH  15  18
ATOM     18  C   UNL     1       2.019  -4.015   1.349  0.00  0.00    +0.000 C 
BRANCH  18  19
ATOM     19  C   UNL     1       3.160  -4.479   2.257  0.00  0.00    +0.000 C 
BRANCH  19  20
ATOM     20  N   UNL     1       2.874  -5.830   2.749  0.00  0.00    +0.000 NA
ATOM     21  H   UNL     1       1.924  -6.218   2.664  0.00  0.00    +0.000 HD
BRANCH  20  22
ATOM     22  S   UNL     1       4.079  -6.731   3.441  0.00  0.00    +0.000 S 
ATOM     23  O   UNL     1       3.462  -7.968   3.771  0.00  0.00    +0.000 OA
ATOM     24  O   UNL     1       5.150  -6.682   2.508  0.00  0.00    +0.000 OA
ATOM     25  C   UNL     1       4.525  -5.832   4.952  0.00  0.00    +0.000 C 
ENDBRANCH  20  22
ENDBRANCH  19  20
ENDBRANCH  18  19
ENDBRANCH  15  18
ENDBRANCH   2  15
TORSDOF 6
ENDMDL
MODEL       79
REMARK  Name = ZINC03605693
REMARK  8 active torsions:
REMARK  status: ('A' for Active; 'I' for Inactive)
REMARK    1  A    between atoms: C_1  and  O_2
REMARK    2  A    between atoms: O_2  and  C_3
REMARK    3  A    between atoms: C_3  and  C_4
REMARK    4  A    between atoms: C_4  and  N_5
REMARK    5  A    between atoms: C_6  and  C_8
REMARK    6  A    between atoms: C_8  and  S_9
REMARK    7  A    between atoms: S_9  and  C_10
REMARK    8  A    between atoms: C_14  and  N_16
REMARK                            x       y       z     vdW  Elec       q    Type
REMARK                         _______ _______ _______ _____ _____    ______ ____
ROOT
ATOM      1  C   UNL     1      -1.383  -2.364   0.003  0.00  0.00    +0.000 A 
ATOM      2  N   UNL     1      -0.129  -2.793  -0.017  0.00  0.00    +0.000 N 
ATOM      3  C   UNL     1       0.146  -4.096  -0.021  0.00  0.00    +0.000 A 
ATOM      4  C   UNL     1      -0.904  -5.010  -0.016  0.00  0.00    +0.000 A 
ATOM      5  C   UNL     1      -2.208  -4.521  -0.001  0.00  0.00    +0.000 A 
ATOM      6  N   UNL     1      -2.406  -3.205   0.008  0.00  0.00    +0.000 NA
ATOM      7  N   UNL     1       1.460  -4.536  -0.036  0.00  0.00    +0.000 N 
ATOM      8  H   UNL     1       0.642  -2.111  -0.029  0.00  0.00    +0.000 HD
ATOM      9  H   UNL     1       2.228  -3.850  -0.043  0.00  0.00    +0.000 HD
ATOM     10  H   UNL     1       1.668  -5.545  -0.039  0.00  0.00    +0.000 HD
ENDROOT
BRANCH   5  11
ATOM     11  N   UNL     1      -3.284  -5.394   0.005  0.00  0.00    +0.000 N 
ATOM     12  H   UNL     1      -3.117  -6.411  -0.002  0.00  0.00    +0.000 HD
ATOM     13  H   UNL     1      -4.248  -5.029   0.016  0.00  0.00    +0.000 HD
ENDBRANCH   5  11
BRANCH   1  14
ATOM     14  S   UNL     1      -1.696  -0.631   0.015  0.00  0.00    +0.000 S 
BRANCH  14  15
ATOM     15  C   UNL     1       0.002  -0.004   0.002  0.00  0.00    +0.000 C 
BRANCH  15  17
ATOM     16  N   UNL     1       1.139   2.192   0.003  0.00  0.00    +0.000 N 
ATOM     17  C   UNL     1      -0.018   1.503   0.010  0.00  0.00    +0.000 C 
ATOM     18  O   UNL     1      -1.077   2.095   0.018  0.00  0.00    +0.000 OA
ATOM     19  H   UNL     1       2.038   1.690  -0.008  0.00  0.00    +0.000 HD
BRANCH  16  20
ATOM     20  C   UNL     1       1.120   3.657   0.011  0.00  0.00    +0.000 C 
BRANCH  20  21
ATOM     21  C   UNL     1       2.555   4.187   0.000  0.00  0.00    +0.000 C 
BRANCH  21  23
ATOM     22  C   UNL     1       4.539   4.273  -1.342  0.00  0.00    +0.000 C 
ATOM     23  O   UNL     1       3.187   3.824  -1.229  0.00  0.00    +0.000 OA
ENDBRANCH  21  23
ENDBRANCH  20  21
ENDBRANCH  16  20
ENDBRANCH  15  17
ENDBRANCH  14  15
ENDBRANCH   1  14
TORSDOF 7
ENDMDL
MODEL       80
REMARK  Name = ZINC05132239
REMARK  7 active torsions:
REMARK  status: ('A' for Active; 'I' for Inactive)
REMARK    1  A    between atoms: C_1  and  C_2
REMARK    2  A    between atoms: C_2  and  N_10
REMARK    3  A    between atoms: C_3  and  N_4
REMARK    4  A    between atoms: N_5  and  C_6
REMARK    5  A    between atoms: N_7  and  C_8
REMARK    6  A    between atoms: N_10  and  N_11
REMARK    7  A    between atoms: C_13  and  N_15
REMARK                            x       y       z     vdW  Elec       q    Type
REMARK                         _______ _______ _______ _____ _____    ______ ____
ROOT
ATOM      1  C   UNL     1      -3.016   3.163  -0.789  0.00  0.00    +0.000 C 
ATOM      2  C   UNL     1      -2.241   2.035  -0.158  0.00  0.00    +0.000 C 
ATOM      3  C   UNL     1      -2.834   0.832   0.040  0.00  0.00    +0.000 C 
ENDROOT
BRANCH   3   4
ATOM      4  N   UNL     1      -2.183  -0.135   0.693  0.00  0.00    +0.000 NA
ATOM      5  N   UNL     1      -2.707  -1.309   0.796  0.00  0.00    +0.000 NA
BRANCH   5   6
ATOM      6  C   UNL     1      -2.095  -2.263   1.548  0.00  0.00    +0.000 C 
ATOM      7  N   UNL     1      -1.042  -1.958   2.259  0.00  0.00    +0.000 N 
ATOM      8  C   UNL     1      -0.595  -0.566   2.347  0.00  0.00    +0.000 C 
ATOM      9  N   UNL     1      -2.586  -3.553   1.561  0.00  0.00    +0.000 N 
ATOM     10  H   UNL     1      -0.525  -2.697   2.758  0.00  0.00    +0.000 HD
ATOM     11  H   UNL     1      -3.417  -3.793   1.001  0.00  0.00    +0.000 HD
ATOM     12  H   UNL     1      -2.123  -4.275   2.131  0.00  0.00    +0.000 HD
ENDBRANCH   5   6
ENDBRANCH   3   4
BRANCH   2  13
ATOM     13  N   UNL     1      -0.941   2.225   0.213  0.00  0.00    +0.000 N 
ATOM     14  H   UNL     1      -0.387   1.433   0.570  0.00  0.00    +0.000 HD
BRANCH  13  15
ATOM     15  N   UNL     1      -0.361   3.496   0.110  0.00  0.00    +0.000 N 
ATOM     16  C   UNL     1       0.658   3.716  -0.786  0.00  0.00    +0.000 C 
ATOM     17  C   UNL     1       0.662   1.335  -1.415  0.00  0.00    +0.000 C 
ATOM     18  N   UNL     1       1.183   4.978  -0.934  0.00  0.00    +0.000 N 
ATOM     19  N   UNL     1       1.179   2.741  -1.542  0.00  0.00    +0.000 N 
ATOM     20  H   UNL     1      -0.698   4.266   0.706  0.00  0.00    +0.000 HD
ATOM     21  H   UNL     1       0.813   5.758  -0.374  0.00  0.00    +0.000 HD
ATOM     22  H   UNL     1       1.946   5.142  -1.606  0.00  0.00    +0.000 HD
ATOM     23  H   UNL     1       1.933   2.954  -2.210  0.00  0.00    +0.000 HD
ENDBRANCH  13  15
ENDBRANCH   2  13
TORSDOF 4
ENDMDL
MODEL       81
REMARK  Name = ZINC09047672
REMARK  8 active torsions:
REMARK  status: ('A' for Active; 'I' for Inactive)
REMARK    1  A    between atoms: C_1  and  N_20
REMARK    2  A    between atoms: C_2  and  N_20
REMARK    3  A    between atoms: C_3  and  C_4
REMARK    4  A    between atoms: C_3  and  N_20
REMARK    5  A    between atoms: C_4  and  N_5
REMARK    6  A    between atoms: C_6  and  C_8
REMARK    7  A    between atoms: C_8  and  N_9
REMARK    8  A    between atoms: N_9  and  C_10
REMARK                            x       y       z     vdW  Elec       q    Type
REMARK                         _______ _______ _______ _____ _____    ______ ____
ROOT
ATOM      1  N   UNL     1      -0.011   0.966   0.007  0.00  0.00    +0.000 N 
ATOM      2  H   UNL     1       0.003  -0.064   0.006  0.00  0.00    +0.000 HD
ENDROOT
BRANCH   1   3
ATOM      3  C   UNL     1      -1.219   1.641   0.017  0.00  0.00    +0.000 A 
ATOM      4  C   UNL     1      -2.436   0.938   0.019  0.00  0.00    +0.000 A 
ATOM      5  C   UNL     1      -3.630   1.678   0.029  0.00  0.00    +0.000 A 
ATOM      6  N   UNL     1      -4.646   0.757   0.028  0.00  0.00    +0.000 N 
ATOM      7  C   UNL     1      -4.075  -0.481   0.017  0.00  0.00    +0.000 A 
ATOM      8  N   UNL     1      -2.778  -0.373   0.012  0.00  0.00    +0.000 NA
ATOM      9  N   UNL     1      -3.567   3.006   0.037  0.00  0.00    +0.000 NA
ATOM     10  C   UNL     1      -2.403   3.623   0.035  0.00  0.00    +0.000 A 
ATOM     11  N   UNL     1      -1.254   2.970   0.030  0.00  0.00    +0.000 NA
ATOM     12 CL   UNL     1      -2.377   5.359   0.046  0.00  0.00    +0.000 Cl
ATOM     13  H   UNL     1      -5.655   0.962   0.034  0.00  0.00    +0.000 HD
ENDBRANCH   1   3
BRANCH   1  14
ATOM     14  C   UNL     1       1.248   1.716  -0.001  0.00  0.00    +0.000 C 
BRANCH  14  16
ATOM     15  N   UNL     1       3.671   1.218  -0.026  0.00  0.00    +0.000 N 
ATOM     16  C   UNL     1       2.406   0.752  -0.017  0.00  0.00    +0.000 C 
ATOM     17  O   UNL     1       2.201  -0.443  -0.021  0.00  0.00    +0.000 OA
ATOM     18  H   UNL     1       3.845   2.233  -0.023  0.00  0.00    +0.000 HD
BRANCH  15  19
ATOM     19  C   UNL     1       4.797   0.282  -0.042  0.00  0.00    +0.000 C 
BRANCH  19  20
ATOM     20  C   UNL     1       6.111   1.065  -0.051  0.00  0.00    +0.000 C 
BRANCH  20  23
ATOM     21  C   UNL     1       7.277  -0.633  -1.324  0.00  0.00    +0.000 C 
ATOM     22  C   UNL     1       8.511   0.826   0.163  0.00  0.00    +0.000 C 
ATOM     23  N   UNL     1       7.237   0.107  -0.045  0.00  0.00    +0.000 N 
ATOM     24  H   UNL     1       7.101  -0.564   0.725  0.00  0.00    +0.000 HD
ENDBRANCH  20  23
ENDBRANCH  19  20
ENDBRANCH  15  19
ENDBRANCH  14  16
ENDBRANCH   1  14
TORSDOF 6
ENDMDL
MODEL       82
REMARK  Name = ZINC00548424
REMARK  9 active torsions:
REMARK  status: ('A' for Active; 'I' for Inactive)
REMARK    1  A    between atoms: C_1  and  O_2
REMARK    2  A    between atoms: O_2  and  C_3
REMARK    3  A    between atoms: C_6  and  C_13
REMARK    4  A    between atoms: C_7  and  C_11
REMARK    5  A    between atoms: C_8  and  O_9
REMARK    6  A    between atoms: O_9  and  C_10
REMARK    7  A    between atoms: N_14  and  N_15
REMARK    8  A    between atoms: N_15  and  C_16
REMARK    9  A    between atoms: C_16  and  N_18
REMARK                            x       y       z     vdW  Elec       q    Type
REMARK                         _______ _______ _______ _____ _____    ______ ____
ROOT
ATOM      1  C   UNL     1       3.651   3.244  -0.016  0.00  0.00    +0.000 A 
ATOM      2  C   UNL     1       3.656   1.858  -0.023  0.00  0.00    +0.000 A 
ATOM      3  C   UNL     1       2.470   1.152  -0.015  0.00  0.00    +0.000 A 
ATOM      4  C   UNL     1       1.251   1.829  -0.000  0.00  0.00    +0.000 A 
ATOM      5  C   UNL     1       1.236   3.241   0.002  0.00  0.00    +0.000 A 
ATOM      6  C   UNL     1       2.447   3.943  -0.001  0.00  0.00    +0.000 A 
ENDROOT
BRANCH   5   7
ATOM      7  C   UNL     1      -0.042   3.969   0.012  0.00  0.00    +0.000 C 
ATOM      8  O   UNL     1      -0.563   4.268   1.069  0.00  0.00    +0.000 OA
ATOM      9  O   UNL     1      -0.636   4.303  -1.151  0.00  0.00    +0.000 OA
ENDBRANCH   5   7
BRANCH   6  10
ATOM     10  O   UNL     1       2.448   5.300   0.006  0.00  0.00    +0.000 OA
ATOM     11  C   UNL     1       2.435   5.955  -1.264  0.00  0.00    +0.000 C 
ENDBRANCH   6  10
BRANCH   1  13
ATOM     12  C   UNL     1       6.027   3.148  -0.038  0.00  0.00    +0.000 C 
ATOM     13  O   UNL     1       4.828   3.925  -0.023  0.00  0.00    +0.000 OA
ENDBRANCH   1  13
BRANCH   4  14
ATOM     14  C   UNL     1      -0.013   1.076   0.008  0.00  0.00    +0.000 C 
ATOM     15  N   UNL     1      -1.146   1.710   0.017  0.00  0.00    +0.000 NA
BRANCH  15  16
ATOM     16  N   UNL     1      -2.350   0.993   0.019  0.00  0.00    +0.000 N 
ATOM     17  H   UNL     1      -2.336  -0.037   0.013  0.00  0.00    +0.000 HD
BRANCH  16  18
ATOM     18  C   UNL     1      -3.526   1.651   0.028  0.00  0.00    +0.000 C 
ATOM     19  S   UNL     1      -4.997   0.775   0.030  0.00  0.00    +0.000 S 
BRANCH  18  20
ATOM     20  N   UNL     1      -3.545   2.999   0.035  0.00  0.00    +0.000 N 
ATOM     21  H   UNL     1      -2.660   3.526   0.034  0.00  0.00    +0.000 HD
ATOM     22  H   UNL     1      -4.444   3.502   0.042  0.00  0.00    +0.000 HD
ENDBRANCH  18  20
ENDBRANCH  16  18
ENDBRANCH  15  16
ENDBRANCH   4  14
TORSDOF 7
ENDMDL
MODEL       83
REMARK  Name = ZINC06158266
REMARK  6 active torsions:
REMARK  status: ('A' for Active; 'I' for Inactive)
REMARK    1  A    between atoms: C_3  and  C_8
REMARK    2  A    between atoms: C_8  and  C_9
REMARK    3  A    between atoms: C_9  and  C_10
REMARK    4  A    between atoms: N_12  and  N_13
REMARK    5  A    between atoms: N_13  and  C_14
REMARK    6  A    between atoms: C_14  and  C_16
REMARK                            x       y       z     vdW  Elec       q    Type
REMARK                         _______ _______ _______ _____ _____    ______ ____
ROOT
ATOM      1  C   UNL     1      -0.718   1.572   1.248  0.00  0.00    +0.000 C 
ATOM      2  O   UNL     1      -1.714   2.256   1.150  0.00  0.00    +0.000 OA
ATOM      3  N   UNL     1      -0.242   1.246   2.466  0.00  0.00    +0.000 N 
ATOM      4  H   UNL     1       0.605   0.665   2.549  0.00  0.00    +0.000 HD
ENDROOT
BRANCH   3   5
ATOM      5  N   UNL     1      -0.897   1.698   3.618  0.00  0.00    +0.000 N 
ATOM      6  H   UNL     1      -1.744   2.279   3.535  0.00  0.00    +0.000 HD
BRANCH   5   7
ATOM      7  C   UNL     1      -0.404   1.360   4.880  0.00  0.00    +0.000 C 
ATOM      8  C   UNL     1       0.695   0.606   4.988  0.00  0.00    +0.000 C 
BRANCH   7   9
ATOM      9  C   UNL     1      -1.094   1.836   6.093  0.00  0.00    +0.000 A 
ATOM     10  C   UNL     1      -0.720   1.581   7.377  0.00  0.00    +0.000 A 
ATOM     11  C   UNL     1      -1.657   2.225   8.208  0.00  0.00    +0.000 A 
ATOM     12  C   UNL     1      -2.547   2.836   7.400  0.00  0.00    +0.000 A 
ATOM     13  O   UNL     1      -2.201   2.603   6.124  0.00  0.00    +0.000 OA
ENDBRANCH   7   9
ENDBRANCH   5   7
ENDBRANCH   3   5
BRANCH   1  14
ATOM     14  C   UNL     1      -0.013   1.086   0.008  0.00  0.00    +0.000 C 
BRANCH  14  15
ATOM     15  C   UNL     1      -0.753   1.593  -1.232  0.00  0.00    +0.000 C 
BRANCH  15  18
ATOM     16  C   UNL     1      -2.007   1.268  -4.084  0.00  0.00    +0.000 C 
ATOM     17  C   UNL     1      -0.769   1.563  -3.733  0.00  0.00    +0.000 C 
ATOM     18  C   UNL     1      -0.037   1.099  -2.490  0.00  0.00    +0.000 C 
ATOM     19  C   UNL     1       1.331   1.736  -2.605  0.00  0.00    +0.000 C 
ATOM     20  O   UNL     1       2.245   1.627  -1.815  0.00  0.00    +0.000 OA
ATOM     21  N   UNL     1       1.344   2.446  -3.747  0.00  0.00    +0.000 N 
ATOM     22  N   UNL     1       0.131   2.363  -4.426  0.00  0.00    +0.000 N 
ATOM     23  H   UNL     1       2.155   2.987  -4.080  0.00  0.00    +0.000 HD
ATOM     24  H   UNL     1      -0.072   2.831  -5.321  0.00  0.00    +0.000 HD
ENDBRANCH  15  18
ENDBRANCH  14  15
ENDBRANCH   1  14
TORSDOF 6
ENDMDL
MODEL       84
REMARK  Name = ZINC20407276
REMARK  6 active torsions:
REMARK  status: ('A' for Active; 'I' for Inactive)
REMARK    1  A    between atoms: C_1  and  C_2
REMARK    2  A    between atoms: C_5  and  C_7
REMARK    3  A    between atoms: N_8  and  N_9
REMARK    4  A    between atoms: C_12  and  S_15
REMARK    5  A    between atoms: S_15  and  C_16
REMARK    6  A    between atoms: C_16  and  C_17
REMARK                            x       y       z     vdW  Elec       q    Type
REMARK                         _______ _______ _______ _____ _____    ______ ____
ROOT
ATOM      1  N   UNL     1       1.123   5.496   0.021  0.00  0.00    +0.000 N 
ATOM      2  C   UNL     1       0.157   6.490   0.036  0.00  0.00    +0.000 A 
ATOM      3  N   UNL     1       0.389   7.838   0.042  0.00  0.00    +0.000 NA
ATOM      4  C   UNL     1      -0.819   8.475   0.057  0.00  0.00    +0.000 A 
ATOM      5  N   UNL     1      -1.759   7.561   0.061  0.00  0.00    +0.000 NA
ATOM      6  N   UNL     1      -1.141   6.304   0.043  0.00  0.00    +0.000 N 
ATOM      7  H   UNL     1       2.122   5.748   0.013  0.00  0.00    +0.000 HD
ATOM      8  H   UNL     1      -1.622   5.393   0.035  0.00  0.00    +0.000 HD
ENDROOT
BRANCH   1  10
ATOM      9  C   UNL     1       1.649   3.215   0.004  0.00  0.00    +0.000 C 
ATOM     10  N   UNL     1       0.742   4.148   0.018  0.00  0.00    +0.000 NA
BRANCH   9  15
ATOM     11  C   UNL     1      -1.211  -0.898   0.009  0.00  0.00    +0.000 C 
ATOM     12  C   UNL     1       0.002  -0.004   0.002  0.00  0.00    +0.000 A 
ATOM     13  C   UNL     1       1.284  -0.420  -0.013  0.00  0.00    +0.000 A 
ATOM     14  C   UNL     1       2.093   0.732  -0.014  0.00  0.00    +0.000 A 
ATOM     15  C   UNL     1       1.249   1.804  -0.000  0.00  0.00    +0.000 A 
ATOM     16  O   UNL     1      -0.016   1.339   0.009  0.00  0.00    +0.000 OA
ENDBRANCH   9  15
ENDBRANCH   1  10
BRANCH   4  17
ATOM     17  S   UNL     1      -1.070  10.219   0.069  0.00  0.00    +0.000 S 
BRANCH  17  18
ATOM     18  C   UNL     1      -2.874  10.403   0.088  0.00  0.00    +0.000 C 
BRANCH  18  19
ATOM     19  C   UNL     1      -3.230  11.867   0.100  0.00  0.00    +0.000 C 
ATOM     20  O   UNL     1      -2.353  12.704   0.096  0.00  0.00    +0.000 OA
ATOM     21  N   UNL     1      -4.523  12.246   0.115  0.00  0.00    +0.000 N 
ATOM     22  H   UNL     1      -5.269  11.535   0.118  0.00  0.00    +0.000 HD
ATOM     23  H   UNL     1      -4.766  13.247   0.123  0.00  0.00    +0.000 HD
ENDBRANCH  18  19
ENDBRANCH  17  18
ENDBRANCH   4  17
TORSDOF 5
ENDMDL
MODEL       85
REMARK  Name = ZINC05377356
REMARK  6 active torsions:
REMARK  status: ('A' for Active; 'I' for Inactive)
REMARK    1  A    between atoms: C_2  and  C_3
REMARK    2  A    between atoms: C_3  and  N_4
REMARK    3  A    between atoms: N_4  and  C_5
REMARK    4  A    between atoms: C_5  and  N_7
REMARK    5  A    between atoms: C_11  and  S_13
REMARK    6  A    between atoms: S_13  and  N_16
REMARK                            x       y       z     vdW  Elec       q    Type
REMARK                         _______ _______ _______ _____ _____    ______ ____
ROOT
ATOM      1  N   UNL     1       1.282   3.350   0.008  0.00  0.00    +0.000 N 
ATOM      2  C   UNL     1       1.102   1.972   0.002  0.00  0.00    +0.000 A 
ATOM      3  N   UNL     1      -0.015   1.257   0.009  0.00  0.00    +0.000 NA
ATOM      4  N   UNL     1       0.002  -0.004   0.002  0.00  0.00    +0.000 NA
ATOM      5  C   UNL     1       1.127  -0.691  -0.012  0.00  0.00    +0.000 A 
ATOM      6  S   UNL     1       2.312   0.652  -0.017  0.00  0.00    +0.000 S 
ATOM      7  H   UNL     1       2.233   3.745   0.001  0.00  0.00    +0.000 HD
ENDROOT
BRANCH   5   8
ATOM      8  S   UNL     1       1.390  -2.433  -0.025  0.00  0.00    +0.000 S 
ATOM      9  O   UNL     1       2.687  -2.652   0.512  0.00  0.00    +0.000 OA
ATOM     10  O   UNL     1       0.225  -3.024   0.534  0.00  0.00    +0.000 OA
BRANCH   8  11
ATOM     11  N   UNL     1       1.448  -2.908  -1.611  0.00  0.00    +0.000 NA
ATOM     12  H   UNL     1       2.322  -3.283  -2.004  0.00  0.00    +0.000 HD
ENDBRANCH   8  11
ENDBRANCH   5   8
BRANCH   1  13
ATOM     13  C   UNL     1       0.212   4.169   0.024  0.00  0.00    +0.000 C 
ATOM     14  S   UNL     1      -1.369   3.513   0.036  0.00  0.00    +0.000 S 
BRANCH  13  15
ATOM     15  N   UNL     1       0.386   5.506   0.030  0.00  0.00    +0.000 N 
ATOM     16  H   UNL     1       1.338   5.901   0.022  0.00  0.00    +0.000 HD
BRANCH  15  17
ATOM     17  C   UNL     1      -0.777   6.396   0.047  0.00  0.00    +0.000 C 
BRANCH  17  19
ATOM     18  C   UNL     1      -0.738   8.659  -0.870  0.00  0.00    +0.000 C 
ATOM     19  C   UNL     1      -0.312   7.830   0.050  0.00  0.00    +0.000 C 
ENDBRANCH  17  19
ENDBRANCH  15  17
ENDBRANCH  13  15
ENDBRANCH   1  13
TORSDOF 6
ENDMDL
MODEL       86
REMARK  Name = ZINC26482033
REMARK  6 active torsions:
REMARK  status: ('A' for Active; 'I' for Inactive)
REMARK    1  A    between atoms: C_3  and  O_14
REMARK    2  A    between atoms: C_6  and  C_7
REMARK    3  A    between atoms: C_7  and  N_8
REMARK    4  A    between atoms: O_14  and  C_15
REMARK    5  A    between atoms: C_15  and  C_16
REMARK    6  A    between atoms: C_16  and  O_17
REMARK                            x       y       z     vdW  Elec       q    Type
REMARK                         _______ _______ _______ _____ _____    ______ ____
ROOT
ATOM      1  C   UNL     1      -2.950   0.241  -1.181  0.00  0.00    +0.000 A 
ATOM      2  C   UNL     1      -3.983  -0.675  -1.183  0.00  0.00    +0.000 A 
ATOM      3  C   UNL     1      -4.500  -1.140   0.017  0.00  0.00    +0.000 A 
ATOM      4  C   UNL     1      -3.972  -0.688   1.218  0.00  0.00    +0.000 A 
ATOM      5  C   UNL     1      -2.934   0.224   1.215  0.00  0.00    +0.000 A 
ATOM      6  C   UNL     1      -2.422   0.686   0.017  0.00  0.00    +0.000 A 
ENDROOT
BRANCH   6   7
ATOM      7  C   UNL     1      -1.290   1.681   0.017  0.00  0.00    +0.000 C 
BRANCH   7   8
ATOM      8  N   UNL     1      -0.011   0.966   0.007  0.00  0.00    +0.000 N 
ATOM      9  C   UNL     1       1.188   1.680  -0.000  0.00  0.00    +0.000 A 
ATOM     10  N   UNL     1       2.401   1.167  -0.015  0.00  0.00    +0.000 NA
ATOM     11  N   UNL     1       3.283   2.260  -0.027  0.00  0.00    +0.000 NA
ATOM     12  N   UNL     1       2.561   3.328  -0.004  0.00  0.00    +0.000 NA
ATOM     13  N   UNL     1       1.316   3.008   0.006  0.00  0.00    +0.000 NA
ATOM     14  H   UNL     1       0.003  -0.064   0.006  0.00  0.00    +0.000 HD
ENDBRANCH   7   8
ENDBRANCH   6   7
BRANCH   3  15
ATOM     15  O   UNL     1      -5.520  -2.037   0.017  0.00  0.00    +0.000 OA
BRANCH  15  16
ATOM     16  C   UNL     1      -6.014  -2.458  -1.256  0.00  0.00    +0.000 C 
BRANCH  16  17
ATOM     17  C   UNL     1      -7.152  -3.461  -1.056  0.00  0.00    +0.000 C 
BRANCH  17  18
ATOM     18  O   UNL     1      -8.254  -2.810  -0.420  0.00  0.00    +0.000 OA
ATOM     19  H   UNL     1      -8.569  -2.063  -0.988  0.00  0.00    +0.000 HD
ENDBRANCH  17  18
ENDBRANCH  16  17
ENDBRANCH  15  16
ENDBRANCH   3  15
TORSDOF 6
ENDMDL
MODEL       87
REMARK  Name = ZINC05386858
REMARK  11 active torsions:
REMARK  status: ('A' for Active; 'I' for Inactive)
REMARK    1  A    between atoms: C_4  and  C_6
REMARK    2  A    between atoms: C_7  and  N_20
REMARK    3  A    between atoms: N_8  and  C_11
REMARK    4  A    between atoms: C_11  and  C_12
REMARK    5  A    between atoms: C_12  and  C_13
REMARK    6  A    between atoms: C_12  and  O_19
REMARK    7  A    between atoms: C_13  and  C_14
REMARK    8  A    between atoms: C_13  and  O_18
REMARK    9  A    between atoms: C_14  and  C_15
REMARK   10  A    between atoms: C_14  and  O_17
REMARK   11  A    between atoms: C_15  and  O_16
REMARK                            x       y       z     vdW  Elec       q    Type
REMARK                         _______ _______ _______ _____ _____    ______ ____
ROOT
ATOM      1  C   UNL     1       1.743   3.187   0.002  0.00  0.00    +0.000 A 
ATOM      2  C   UNL     1       3.055   3.617  -0.008  0.00  0.00    +0.000 A 
ATOM      3  N   UNL     1       3.014   4.984  -0.002  0.00  0.00    +0.000 N 
ATOM      4  C   UNL     1       1.704   5.355   0.013  0.00  0.00    +0.000 A 
ATOM      5  N   UNL     1       0.954   4.291   0.009  0.00  0.00    +0.000 NA
ENDROOT
BRANCH   1   9
ATOM      6  C   UNL     1       0.002  -0.004   0.002  0.00  0.00    +0.000 A 
ATOM      7  C   UNL     1       1.294  -0.381  -0.012  0.00  0.00    +0.000 A 
ATOM      8  N   UNL     1       2.058   0.720  -0.014  0.00  0.00    +0.000 NA
ATOM      9  C   UNL     1       1.284   1.786  -0.001  0.00  0.00    +0.000 A 
ATOM     10  N   UNL     1      -0.017   1.370   0.010  0.00  0.00    +0.000 N 
ATOM     11  H   UNL     1      -0.853   1.972   0.021  0.00  0.00    +0.000 HD
ENDBRANCH   1   9
BRANCH   2  12
ATOM     12  N   UNL     1       4.191   2.820  -0.023  0.00  0.00    +0.000 N 
ATOM     13  H   UNL     1       4.014   1.805  -0.027  0.00  0.00    +0.000 HD
ATOM     14  H   UNL     1       5.150   3.197  -0.030  0.00  0.00    +0.000 HD
ENDBRANCH   2  12
BRANCH   3  15
ATOM     15  C   UNL     1       4.170   5.885  -0.008  0.00  0.00    +0.000 C 
BRANCH  15  16
ATOM     16  C   UNL     1       4.636   6.106  -1.448  0.00  0.00    +0.000 C 
BRANCH  16  17
ATOM     17  O   UNL     1       5.115   4.873  -1.989  0.00  0.00    +0.000 OA
ATOM     18  H   UNL     1       4.387   4.202  -1.978  0.00  0.00    +0.000 HD
ENDBRANCH  16  17
BRANCH  16  19
ATOM     19  C   UNL     1       5.761   7.143  -1.467  0.00  0.00    +0.000 C 
BRANCH  19  20
ATOM     20  O   UNL     1       6.807   6.726  -0.587  0.00  0.00    +0.000 OA
ATOM     21  H   UNL     1       7.160   5.851  -0.885  0.00  0.00    +0.000 HD
ENDBRANCH  19  20
BRANCH  19  22
ATOM     22  C   UNL     1       6.311   7.273  -2.888  0.00  0.00    +0.000 C 
BRANCH  22  23
ATOM     23  O   UNL     1       6.714   5.987  -3.363  0.00  0.00    +0.000 OA
ATOM     24  H   UNL     1       5.934   5.376  -3.366  0.00  0.00    +0.000 HD
ENDBRANCH  22  23
BRANCH  22  25
ATOM     25  C   UNL     1       7.516   8.215  -2.884  0.00  0.00    +0.000 C 
BRANCH  25  26
ATOM     26  O   UNL     1       7.959   8.429  -4.226  0.00  0.00    +0.000 OA
ATOM     27  H   UNL     1       7.226   8.833  -4.756  0.00  0.00    +0.000 HD
ENDBRANCH  25  26
ENDBRANCH  22  25
ENDBRANCH  19  22
ENDBRANCH  16  19
ENDBRANCH  15  16
ENDBRANCH   3  15
TORSDOF 11
ENDMDL
MODEL       88
REMARK  Name = ZINC21787191
REMARK  10 active torsions:
REMARK  status: ('A' for Active; 'I' for Inactive)
REMARK    1  A    between atoms: C_1  and  C_2
REMARK    2  A    between atoms: C_2  and  C_3
REMARK    3  A    between atoms: C_2  and  N_19
REMARK    4  A    between atoms: C_7  and  S_9
REMARK    5  A    between atoms: S_9  and  N_12
REMARK    6  A    between atoms: N_12  and  C_13
REMARK    7  A    between atoms: N_12  and  C_14
REMARK    8  A    between atoms: C_14  and  C_15
REMARK    9  A    between atoms: C_15  and  O_17
REMARK   10  A    between atoms: O_17  and  C_18
REMARK                            x       y       z     vdW  Elec       q    Type
REMARK                         _______ _______ _______ _____ _____    ______ ____
ROOT
ATOM      1  C   UNL     1      -0.018   1.503   0.010  0.00  0.00    +0.000 A 
ATOM      2  C   UNL     1       1.169   2.210   0.003  0.00  0.00    +0.000 A 
ATOM      3  C   UNL     1       1.151   3.592   0.010  0.00  0.00    +0.000 A 
ATOM      4  C   UNL     1      -0.056   4.267   0.025  0.00  0.00    +0.000 A 
ATOM      5  C   UNL     1      -1.243   3.560   0.032  0.00  0.00    +0.000 A 
ATOM      6  C   UNL     1      -1.225   2.178   0.020  0.00  0.00    +0.000 A 
ENDROOT
BRANCH   5   7
ATOM      7  S   UNL     1      -2.781   4.420   0.050  0.00  0.00    +0.000 S 
ATOM      8  O   UNL     1      -3.738   3.529   0.606  0.00  0.00    +0.000 OA
ATOM      9  O   UNL     1      -2.522   5.703   0.605  0.00  0.00    +0.000 OA
BRANCH   7  10
ATOM     10  N   UNL     1      -3.223   4.667  -1.526  0.00  0.00    +0.000 NA
ATOM     11  C   UNL     1      -4.038   3.668  -2.224  0.00  0.00    +0.000 C 
BRANCH  10  12
ATOM     12  C   UNL     1      -2.799   5.883  -2.224  0.00  0.00    +0.000 C 
BRANCH  12  13
ATOM     13  C   UNL     1      -1.536   5.604  -2.998  0.00  0.00    +0.000 C 
ATOM     14  O   UNL     1      -1.041   4.502  -2.970  0.00  0.00    +0.000 OA
BRANCH  13  15
ATOM     15  O   UNL     1      -0.961   6.579  -3.719  0.00  0.00    +0.000 OA
ATOM     16  C   UNL     1       0.253   6.239  -4.439  0.00  0.00    +0.000 C 
ENDBRANCH  13  15
ENDBRANCH  12  13
ENDBRANCH  10  12
ENDBRANCH   7  10
ENDBRANCH   5   7
BRANCH   1  18
ATOM     17  C   UNL     1       0.246  -0.503  -1.424  0.00  0.00    +0.000 C 
ATOM     18  C   UNL     1       0.002  -0.004   0.002  0.00  0.00    +0.000 C 
BRANCH  18  19
ATOM     19  N   UNL     1       1.078  -0.484   0.879  0.00  0.00    +0.000 N 
ATOM     20  H   UNL     1       1.983  -0.127   0.542  0.00  0.00    +0.000 HD
ATOM     21  H   UNL     1       1.093  -1.514   0.875  0.00  0.00    +0.000 HD
ATOM     22  H   UNL     1       0.914  -0.148   1.839  0.00  0.00    +0.000 HD
ENDBRANCH  18  19
ENDBRANCH   1  18
TORSDOF 7
ENDMDL
MODEL       89
REMARK  Name = ZINC08652693
REMARK  9 active torsions:
REMARK  status: ('A' for Active; 'I' for Inactive)
REMARK    1  A    between atoms: C_1  and  C_2
REMARK    2  A    between atoms: C_2  and  C_3
REMARK    3  A    between atoms: C_10  and  C_11
REMARK    4  A    between atoms: N_12  and  C_13
REMARK    5  A    between atoms: C_13  and  C_14
REMARK    6  A    between atoms: C_14  and  C_15
REMARK    7  A    between atoms: C_15  and  N_20
REMARK    8  A    between atoms: C_16  and  N_20
REMARK    9  A    between atoms: C_17  and  N_20
REMARK                            x       y       z     vdW  Elec       q    Type
REMARK                         _______ _______ _______ _____ _____    ______ ____
ROOT
ATOM      1  C   UNL     1       1.589  -1.033  -1.072  0.00  0.00    +0.000 C 
ATOM      2  C   UNL     1       0.072  -1.175  -0.816  0.00  0.00    +0.000 C 
ATOM      3  O   UNL     1      -0.384   0.206  -0.678  0.00  0.00    +0.000 OA
ATOM      4  C   UNL     1       0.678   0.995  -0.445  0.00  0.00    +0.000 C 
ATOM      5  N   UNL     1       0.642   2.218   0.064  0.00  0.00    +0.000 NA
ATOM      6  C   UNL     1       1.778   2.910   0.267  0.00  0.00    +0.000 C 
ATOM      7  O   UNL     1       1.732   4.067   0.651  0.00  0.00    +0.000 OA
ATOM      8  C   UNL     1       3.083   2.259   0.020  0.00  0.00    +0.000 C 
ATOM      9  C   UNL     1       3.046   1.079  -0.897  0.00  0.00    +0.000 C 
ATOM     10  N   UNL     1       1.846   0.378  -0.813  0.00  0.00    +0.000 N 
ATOM     11  N   UNL     1       4.009   0.686  -1.724  0.00  0.00    +0.000 NA
ATOM     12  H   UNL     1       4.856   1.271  -1.713  0.00  0.00    +0.000 HD
ENDROOT
BRANCH   8  13
ATOM     13  C   UNL     1       4.252   2.708   0.595  0.00  0.00    +0.000 C 
ATOM     14  N   UNL     1       4.231   3.785   1.421  0.00  0.00    +0.000 NA
BRANCH  14  15
ATOM     15  C   UNL     1       5.474   4.263   2.032  0.00  0.00    +0.000 C 
BRANCH  15  16
ATOM     16  C   UNL     1       5.175   5.479   2.912  0.00  0.00    +0.000 C 
BRANCH  16  17
ATOM     17  C   UNL     1       6.472   5.978   3.550  0.00  0.00    +0.000 C 
BRANCH  17  20
ATOM     18  C   UNL     1       7.354   7.508   5.207  0.00  0.00    +0.000 C 
ATOM     19  C   UNL     1       5.734   8.284   3.583  0.00  0.00    +0.000 C 
ATOM     20  N   UNL     1       6.164   7.139   4.412  0.00  0.00    +0.000 N 
ATOM     21  H   UNL     1       5.399   6.885   5.054  0.00  0.00    +0.000 HD
ENDBRANCH  17  20
ENDBRANCH  16  17
ENDBRANCH  15  16
ENDBRANCH  14  15
ENDBRANCH   8  13
BRANCH   1  23
ATOM     22  C   UNL     1       1.641  -2.873  -2.762  0.00  0.00    +0.000 C 
ATOM     23  C   UNL     1       1.926  -1.389  -2.521  0.00  0.00    +0.000 C 
ENDBRANCH   1  23
TORSDOF 6
ENDMDL
MODEL       90
REMARK  Name = ZINC00001866
REMARK  9 active torsions:
REMARK  status: ('A' for Active; 'I' for Inactive)
REMARK    1  A    between atoms: C_3  and  N_9
REMARK    2  A    between atoms: C_6  and  N_7
REMARK    3  A    between atoms: N_7  and  N_8
REMARK    4  A    between atoms: N_9  and  C_10
REMARK    5  A    between atoms: N_9  and  C_13
REMARK    6  A    between atoms: C_10  and  C_11
REMARK    7  A    between atoms: C_11  and  O_12
REMARK    8  A    between atoms: C_13  and  C_14
REMARK    9  A    between atoms: C_14  and  O_15
REMARK                            x       y       z     vdW  Elec       q    Type
REMARK                         _______ _______ _______ _____ _____    ______ ____
ROOT
ATOM      1  C   UNL     1      -2.427   0.934   0.019  0.00  0.00    +0.000 A 
ATOM      2  C   UNL     1      -3.609   1.653   0.029  0.00  0.00    +0.000 A 
ATOM      3  C   UNL     1      -3.527   3.046   0.036  0.00  0.00    +0.000 A 
ATOM      4  N   UNL     1      -2.343   3.636   0.034  0.00  0.00    +0.000 NA
ATOM      5  N   UNL     1      -1.247   2.969   0.030  0.00  0.00    +0.000 NA
ATOM      6  C   UNL     1      -1.227   1.646   0.017  0.00  0.00    +0.000 A 
ENDROOT
BRANCH   6   7
ATOM      7  N   UNL     1      -0.011   0.966   0.007  0.00  0.00    +0.000 N 
ATOM      8  H   UNL     1       0.003  -0.064   0.006  0.00  0.00    +0.000 HD
BRANCH   7   9
ATOM      9  N   UNL     1       1.163   1.665  -0.000  0.00  0.00    +0.000 NA
ATOM     10  H   UNL     1       1.114   2.274   0.829  0.00  0.00    +0.000 HD
ATOM     11  H   UNL     1       1.102   2.276  -0.827  0.00  0.00    +0.000 HD
ENDBRANCH   7   9
ENDBRANCH   6   7
BRANCH   3  12
ATOM     12  N   UNL     1      -4.690   3.814   0.046  0.00  0.00    +0.000 N 
BRANCH  12  13
ATOM     13  C   UNL     1      -5.998   3.162   0.159  0.00  0.00    +0.000 C 
BRANCH  13  14
ATOM     14  C   UNL     1      -6.377   3.032   1.635  0.00  0.00    +0.000 C 
BRANCH  14  15
ATOM     15  O   UNL     1      -6.553   4.334   2.198  0.00  0.00    +0.000 OA
ATOM     16  H   UNL     1      -7.274   4.809   1.714  0.00  0.00    +0.000 HD
ENDBRANCH  14  15
ENDBRANCH  13  14
ENDBRANCH  12  13
BRANCH  12  17
ATOM     17  C   UNL     1      -4.606   5.273  -0.057  0.00  0.00    +0.000 C 
BRANCH  17  18
ATOM     18  C   UNL     1      -4.652   5.684  -1.530  0.00  0.00    +0.000 C 
BRANCH  18  19
ATOM     19  O   UNL     1      -5.925   5.340  -2.080  0.00  0.00    +0.000 OA
ATOM     20  H   UNL     1      -6.639   5.812  -1.584  0.00  0.00    +0.000 HD
ENDBRANCH  18  19
ENDBRANCH  17  18
ENDBRANCH  12  17
ENDBRANCH   3  12
TORSDOF 9
ENDMDL
MODEL       91
REMARK  Name = ZINC05594654
REMARK  12 active torsions:
REMARK  status: ('A' for Active; 'I' for Inactive)
REMARK    1  A    between atoms: C_3  and  N_20
REMARK    2  A    between atoms: N_7  and  C_10
REMARK    3  A    between atoms: C_10  and  C_11
REMARK    4  A    between atoms: C_11  and  C_12
REMARK    5  A    between atoms: C_11  and  O_19
REMARK    6  A    between atoms: C_12  and  N_21
REMARK    7  A    between atoms: C_13  and  C_14
REMARK    8  A    between atoms: C_13  and  N_21
REMARK    9  A    between atoms: C_14  and  O_15
REMARK   10  A    between atoms: C_16  and  C_17
REMARK   11  A    between atoms: C_16  and  N_21
REMARK   12  A    between atoms: C_17  and  O_18
REMARK                            x       y       z     vdW  Elec       q    Type
REMARK                         _______ _______ _______ _____ _____    ______ ____
ROOT
ATOM      1  C   UNL     1       3.696  -2.289  -1.530  0.00  0.00    +0.000 C 
ENDROOT
BRANCH   1   2
ATOM      2  O   UNL     1       2.424  -2.477  -2.152  0.00  0.00    +0.000 OA
ATOM      3  H   UNL     1       1.946  -1.611  -2.196  0.00  0.00    +0.000 HD
ENDBRANCH   1   2
BRANCH   1   4
ATOM      4  C   UNL     1       4.434  -3.628  -1.464  0.00  0.00    +0.000 C 
BRANCH   4   5
ATOM      5  N   UNL     1       4.708  -4.090  -2.841  0.00  0.00    +0.000 N 
ATOM      6  H   UNL     1       3.831  -4.070  -3.381  0.00  0.00    +0.000 HD
BRANCH   5   7
ATOM      7  C   UNL     1       5.224  -5.475  -2.816  0.00  0.00    +0.000 C 
BRANCH   7   8
ATOM      8  C   UNL     1       4.051  -6.432  -2.599  0.00  0.00    +0.000 C 
BRANCH   8   9
ATOM      9  O   UNL     1       3.165  -6.362  -3.718  0.00  0.00    +0.000 OA
ATOM     10  H   UNL     1       3.651  -6.618  -4.541  0.00  0.00    +0.000 HD
ENDBRANCH   8   9
ENDBRANCH   7   8
ENDBRANCH   5   7
BRANCH   5  11
ATOM     11  C   UNL     1       5.691  -3.196  -3.488  0.00  0.00    +0.000 C 
BRANCH  11  12
ATOM     12  C   UNL     1       5.671  -3.454  -4.996  0.00  0.00    +0.000 C 
BRANCH  12  13
ATOM     13  O   UNL     1       4.389  -3.108  -5.522  0.00  0.00    +0.000 OA
ATOM     14  H   UNL     1       4.207  -2.150  -5.349  0.00  0.00    +0.000 HD
ENDBRANCH  12  13
ENDBRANCH  11  12
ENDBRANCH   5  11
ENDBRANCH   4   5
ENDBRANCH   1   4
BRANCH   1  15
ATOM     15  C   UNL     1       3.496  -1.747  -0.113  0.00  0.00    +0.000 C 
BRANCH  15  22
ATOM     16  C   UNL     1      -0.728  -0.268  -0.453  0.00  0.00    +0.000 A 
ATOM     17  N   UNL     1      -0.868   1.044  -0.487  0.00  0.00    +0.000 NA
ATOM     18  C   UNL     1       0.186   1.851  -0.424  0.00  0.00    +0.000 A 
ATOM     19  C   UNL     1       1.464   1.275  -0.319  0.00  0.00    +0.000 A 
ATOM     20  C   UNL     1       1.560  -0.126  -0.286  0.00  0.00    +0.000 A 
ATOM     21  N   UNL     1       0.448  -0.851  -0.355  0.00  0.00    +0.000 NA
ATOM     22  N   UNL     1       2.898  -0.411  -0.182  0.00  0.00    +0.000 N 
ATOM     23  C   UNL     1       3.568   0.775  -0.154  0.00  0.00    +0.000 A 
ATOM     24  N   UNL     1       2.725   1.764  -0.234  0.00  0.00    +0.000 NA
BRANCH  18  25
ATOM     25  N   UNL     1       0.030   3.225  -0.462  0.00  0.00    +0.000 N 
ATOM     26  H   UNL     1      -0.916   3.625  -0.539  0.00  0.00    +0.000 HD
ATOM     27  H   UNL     1       0.851   3.845  -0.412  0.00  0.00    +0.000 HD
ENDBRANCH  18  25
ENDBRANCH  15  22
ENDBRANCH   1  15
TORSDOF 12
ENDMDL
MODEL       92
REMARK  Name = ZINC19282844
REMARK  11 active torsions:
REMARK  status: ('A' for Active; 'I' for Inactive)
REMARK    1  A    between atoms: C_1  and  C_2
REMARK    2  A    between atoms: C_2  and  O_3
REMARK    3  A    between atoms: O_3  and  C_4
REMARK    4  A    between atoms: C_7  and  O_17
REMARK    5  A    between atoms: C_8  and  N_10
REMARK    6  A    between atoms: N_10  and  S_11
REMARK    7  A    between atoms: S_11  and  C_14
REMARK    8  A    between atoms: C_14  and  C_15
REMARK    9  A    between atoms: C_15  and  N_16
REMARK   10  A    between atoms: O_17  and  C_18
REMARK   11  A    between atoms: C_18  and  C_19
REMARK                            x       y       z     vdW  Elec       q    Type
REMARK                         _______ _______ _______ _____ _____    ______ ____
ROOT
ATOM      1  C   UNL     1       4.322   0.425  -0.757  0.00  0.00    +0.000 A 
ATOM      2  C   UNL     1       4.721   0.857  -2.014  0.00  0.00    +0.000 A 
ATOM      3  C   UNL     1       3.820   0.868  -3.062  0.00  0.00    +0.000 A 
ATOM      4  C   UNL     1       2.516   0.448  -2.861  0.00  0.00    +0.000 A 
ATOM      5  C   UNL     1       2.112   0.013  -1.600  0.00  0.00    +0.000 A 
ATOM      6  C   UNL     1       3.017   0.008  -0.549  0.00  0.00    +0.000 A 
ENDROOT
BRANCH   1   7
ATOM      7  O   UNL     1       5.211   0.417   0.272  0.00  0.00    +0.000 OA
BRANCH   7   9
ATOM      8  C   UNL     1       7.387   0.784   1.257  0.00  0.00    +0.000 C 
ATOM      9  C   UNL     1       6.537   0.865  -0.013  0.00  0.00    +0.000 C 
ENDBRANCH   7   9
ENDBRANCH   1   7
BRANCH   5  10
ATOM     10  N   UNL     1       0.795  -0.411  -1.394  0.00  0.00    +0.000 NA
BRANCH  10  11
ATOM     11  S   UNL     1       0.038  -0.094   0.045  0.00  0.00    +0.000 S 
ATOM     12  O   UNL     1       0.890  -0.656   1.034  0.00  0.00    +0.000 OA
ATOM     13  O   UNL     1      -1.287  -0.577  -0.128  0.00  0.00    +0.000 OA
BRANCH  11  14
ATOM     14  C   UNL     1       0.032   1.715   0.179  0.00  0.00    +0.000 C 
BRANCH  14  15
ATOM     15  C   UNL     1      -0.650   2.127   1.486  0.00  0.00    +0.000 C 
BRANCH  15  16
ATOM     16  N   UNL     1      -0.655   3.591   1.595  0.00  0.00    +0.000 N 
ATOM     17  H   UNL     1      -1.169   3.994   0.798  0.00  0.00    +0.000 HD
ATOM     18  H   UNL     1       0.314   3.941   1.589  0.00  0.00    +0.000 HD
ATOM     19  H   UNL     1      -1.114   3.869   2.474  0.00  0.00    +0.000 HD
ENDBRANCH  15  16
ENDBRANCH  14  15
ENDBRANCH  11  14
ENDBRANCH  10  11
ENDBRANCH   5  10
BRANCH   4  20
ATOM     20  O   UNL     1       1.629   0.460  -3.893  0.00  0.00    +0.000 OA
BRANCH  20  21
ATOM     21  C   UNL     1       2.112   0.918  -5.158  0.00  0.00    +0.000 C 
ATOM     22  C   UNL     1       0.981   0.860  -6.187  0.00  0.00    +0.000 C 
ENDBRANCH  20  21
ENDBRANCH   4  20
TORSDOF 9
ENDMDL
MODEL       93
REMARK  Name = ZINC02538358
REMARK  10 active torsions:
REMARK  status: ('A' for Active; 'I' for Inactive)
REMARK    1  A    between atoms: C_1  and  C_2
REMARK    2  A    between atoms: C_2  and  O_3
REMARK    3  A    between atoms: O_3  and  C_4
REMARK    4  A    between atoms: C_4  and  C_6
REMARK    5  A    between atoms: N_9  and  C_11
REMARK    6  A    between atoms: C_11  and  S_12
REMARK    7  A    between atoms: S_12  and  C_13
REMARK    8  A    between atoms: C_13  and  C_14
REMARK    9  A    between atoms: C_14  and  C_15
REMARK   10  A    between atoms: C_14  and  N_18
REMARK                            x       y       z     vdW  Elec       q    Type
REMARK                         _______ _______ _______ _____ _____    ______ ____
ROOT
ATOM      1  C   UNK     1      -1.515   4.342   0.038  0.00  0.00    +0.000 C 
ENDROOT
BRANCH   1   5
ATOM      2  C   UNK     1       1.102   1.948   0.002  0.00  0.00    +0.000 A 
ATOM      3  C   UNK     1      -0.013   1.076   0.008  0.00  0.00    +0.000 A 
ATOM      4  C   UNK     1      -1.101   1.880   0.017  0.00  0.00    +0.000 A 
ATOM      5  N   UNK     1      -0.656   3.155   0.025  0.00  0.00    +0.000 N 
ATOM      6  N   UNK     1       0.628   3.178   0.013  0.00  0.00    +0.000 NA
BRANCH   2   7
ATOM      7  C   UNK     1       2.525   1.555  -0.013  0.00  0.00    +0.000 C 
ATOM      8  O   UNK     1       2.830   0.379  -0.022  0.00  0.00    +0.000 OA
BRANCH   7   9
ATOM      9  O   UNK     1       3.485   2.500  -0.017  0.00  0.00    +0.000 OA
BRANCH   9  11
ATOM     10  C   UNK     1       5.803   3.248  -0.035  0.00  0.00    +0.000 C 
ATOM     11  C   UNK     1       4.862   2.041  -0.033  0.00  0.00    +0.000 C 
ENDBRANCH   9  11
ENDBRANCH   7   9
ENDBRANCH   2   7
ENDBRANCH   1   5
BRANCH   1  12
ATOM     12  S   UNK     1      -1.885   4.841  -1.667  0.00  0.00    +0.000 S 
BRANCH  12  13
ATOM     13  C   UNK     1      -2.942   6.303  -1.477  0.00  0.00    +0.000 C 
BRANCH  13  14
ATOM     14  C   UNK     1      -3.332   6.832  -2.858  0.00  0.00    +0.000 C 
BRANCH  14  15
ATOM     15  N   UNK     1      -2.108   7.175  -3.603  0.00  0.00    +0.000 N 
ATOM     16  H   UNK     1      -1.520   6.337  -3.712  0.00  0.00    +0.000 HD
ATOM     17  H   UNK     1      -1.583   7.901  -3.094  0.00  0.00    +0.000 HD
ATOM     18  H   UNK     1      -2.366   7.533  -4.534  0.00  0.00    +0.000 HD
ENDBRANCH  14  15
BRANCH  14  19
ATOM     19  C   UNK     1      -4.210   8.047  -2.700  0.00  0.00    +0.000 C 
ATOM     20  O   UNK     1      -3.740   9.153  -2.822  0.00  0.00    +0.000 OA
ATOM     21  O   UNK     1      -5.516   7.900  -2.425  0.00  0.00    +0.000 OA
ENDBRANCH  14  19
ENDBRANCH  13  14
ENDBRANCH  12  13
ENDBRANCH   1  12
TORSDOF 9
ENDMDL
MODEL       94
REMARK  Name = ZINC17323783
REMARK  16 active torsions:
REMARK  status: ('A' for Active; 'I' for Inactive)
REMARK    1  A    between atoms: C_1  and  N_2
REMARK    2  A    between atoms: N_2  and  C_3
REMARK    3  A    between atoms: N_2  and  C_4
REMARK    4  A    between atoms: N_2  and  C_5
REMARK    5  A    between atoms: C_5  and  C_6
REMARK    6  A    between atoms: N_8  and  N_9
REMARK    7  A    between atoms: C_10  and  C_11
REMARK    8  A    between atoms: C_11  and  C_12
REMARK    9  A    between atoms: C_11  and  O_20
REMARK   10  A    between atoms: C_12  and  C_13
REMARK   11  A    between atoms: C_12  and  O_19
REMARK   12  A    between atoms: C_13  and  C_14
REMARK   13  A    between atoms: C_13  and  O_18
REMARK   14  A    between atoms: C_14  and  C_15
REMARK   15  A    between atoms: C_14  and  O_17
REMARK   16  A    between atoms: C_15  and  O_16
REMARK                            x       y       z     vdW  Elec       q    Type
REMARK                         _______ _______ _______ _____ _____    ______ ____
ROOT
ATOM      1  C   UNL     1       1.466  -2.185  -2.364  0.00  0.00    +0.000 C 
ENDROOT
BRANCH   1   2
ATOM      2  O   UNL     1       0.936  -1.873  -1.074  0.00  0.00    +0.000 OA
ATOM      3  H   UNL     1       1.496  -2.295  -0.375  0.00  0.00    +0.000 HD
ENDBRANCH   1   2
BRANCH   1   5
ATOM      4  N   UNL     1       2.551  -4.281  -2.881  0.00  0.00    +0.000 NA
ATOM      5  C   UNL     1       1.468  -3.679  -2.558  0.00  0.00    +0.000 C 
BRANCH   4   8
ATOM      6  C   UNL     1       4.913  -4.222  -3.170  0.00  0.00    +0.000 C 
ATOM      7  O   UNL     1       4.910  -5.425  -3.325  0.00  0.00    +0.000 OA
ATOM      8  N   UNL     1       3.756  -3.570  -2.940  0.00  0.00    +0.000 N 
ATOM      9  H   UNL     1       3.759  -2.548  -2.808  0.00  0.00    +0.000 HD
BRANCH   6  10
ATOM     10  C   UNL     1       6.210  -3.457  -3.233  0.00  0.00    +0.000 C 
BRANCH  10  12
ATOM     11  C   UNL     1       7.027  -4.987  -4.890  0.00  0.00    +0.000 C 
ATOM     12  N   UNL     1       7.303  -4.374  -3.584  0.00  0.00    +0.000 N 
ATOM     13  C   UNL     1       8.566  -3.627  -3.652  0.00  0.00    +0.000 C 
ATOM     14  C   UNL     1       7.408  -5.424  -2.562  0.00  0.00    +0.000 C 
ENDBRANCH  10  12
ENDBRANCH   6  10
ENDBRANCH   4   8
ENDBRANCH   1   5
BRANCH   1  15
ATOM     15  C   UNL     1       0.599  -1.532  -3.442  0.00  0.00    +0.000 C 
BRANCH  15  16
ATOM     16  O   UNL     1      -0.707  -2.111  -3.420  0.00  0.00    +0.000 OA
ATOM     17  H   UNL     1      -1.119  -1.964  -2.532  0.00  0.00    +0.000 HD
ENDBRANCH  15  16
BRANCH  15  18
ATOM     18  C   UNL     1       0.494  -0.029  -3.172  0.00  0.00    +0.000 C 
BRANCH  18  19
ATOM     19  O   UNL     1       1.800   0.550  -3.195  0.00  0.00    +0.000 OA
ATOM     20  H   UNL     1       2.212   0.403  -4.083  0.00  0.00    +0.000 HD
ENDBRANCH  18  19
BRANCH  18  21
ATOM     21  C   UNL     1      -0.372   0.624  -4.251  0.00  0.00    +0.000 C 
BRANCH  21  22
ATOM     22  O   UNL     1      -1.678   0.044  -4.228  0.00  0.00    +0.000 OA
ATOM     23  H   UNL     1      -2.091   0.192  -3.340  0.00  0.00    +0.000 HD
ENDBRANCH  21  22
BRANCH  21  24
ATOM     24  C   UNL     1      -0.477   2.126  -3.981  0.00  0.00    +0.000 C 
BRANCH  24  25
ATOM     25  O   UNL     1      -1.188   2.754  -5.049  0.00  0.00    +0.000 OA
ATOM     26  H   UNL     1      -2.097   2.367  -5.114  0.00  0.00    +0.000 HD
ENDBRANCH  24  25
ENDBRANCH  21  24
ENDBRANCH  18  21
ENDBRANCH  15  18
ENDBRANCH   1  15
TORSDOF 13
ENDMDL
MODEL       95
REMARK  Name = ZINC22450082
REMARK  9 active torsions:
REMARK  status: ('A' for Active; 'I' for Inactive)
REMARK    1  A    between atoms: C_2  and  C_6
REMARK    2  A    between atoms: C_6  and  N_7
REMARK    3  A    between atoms: C_9  and  C_12
REMARK    4  A    between atoms: C_12  and  CA_13
REMARK    5  A    between atoms: CA_13  and  C_14
REMARK    6  A    between atoms: CA_13  and  N_17
REMARK    7  A    between atoms: N_17  and  C_18
REMARK    8  A    between atoms: C_18  and  C_19
REMARK    9  A    between atoms: C_19  and  N_20
REMARK                            x       y       z     vdW  Elec       q    Type
REMARK                         _______ _______ _______ _____ _____    ______ ____
ROOT
ATOM      1  C   UNL     1       0.522   3.639  -1.233  0.00  0.00    +0.000 C 
ENDROOT
BRANCH   1   4
ATOM      2  N   UNL     1       0.686   7.260  -1.643  0.00  0.00    +0.000 N 
ATOM      3  C   UNL     1       0.927   5.994  -2.104  0.00  0.00    +0.000 A 
ATOM      4  C   UNL     1       0.473   5.143  -1.164  0.00  0.00    +0.000 A 
ATOM      5  N   UNL     1      -0.036   5.870  -0.158  0.00  0.00    +0.000 NA
ATOM      6  C   UNL     1       0.093   7.138  -0.435  0.00  0.00    +0.000 A 
BRANCH   2   7
ATOM      7  C   UNL     1       1.011   8.512  -2.330  0.00  0.00    +0.000 C 
BRANCH   7   9
ATOM      8  C   UNL     1      -1.224   9.704  -2.889  0.00  0.00    +0.000 A 
ATOM      9  C   UNL     1      -0.153   8.928  -3.193  0.00  0.00    +0.000 A 
ATOM     10  S   UNL     1      -0.509   8.529  -4.898  0.00  0.00    +0.000 S 
ATOM     11  C   UNL     1      -1.997   9.415  -5.029  0.00  0.00    +0.000 A 
ATOM     12  N   UNL     1      -2.119   9.930  -3.828  0.00  0.00    +0.000 NA
ENDBRANCH   7   9
ENDBRANCH   2   7
ENDBRANCH   1   4
BRANCH   1  13
ATOM     13  CA  UNL     1       1.235   3.094   0.007  0.00  0.00    +0.000 C 
BRANCH  13  14
ATOM     14  C   UNL     1       1.177   1.588  -0.001  0.00  0.00    +0.000 C 
ATOM     15  O   UNL     1       2.199   0.944  -0.014  0.00  0.00    +0.000 OA
ATOM     16  OXT UNL     1      -0.011   0.963   0.007  0.00  0.00    +0.000 OA
ENDBRANCH  13  14
BRANCH  13  17
ATOM     17  N   UNL     1       2.638   3.530  -0.004  0.00  0.00    +0.000 N 
ATOM     18  H1  UNL     1       3.192   2.878  -0.578  0.00  0.00    +0.000 HD
ATOM     19  H2  UNL     1       2.699   4.471  -0.419  0.00  0.00    +0.000 HD
BRANCH  17  20
ATOM     20  C   UNL     1       3.189   3.565   1.357  0.00  0.00    +0.000 C 
BRANCH  20  21
ATOM     21  C   UNL     1       4.648   4.022   1.305  0.00  0.00    +0.000 C 
BRANCH  21  22
ATOM     22  N   UNL     1       5.199   4.056   2.666  0.00  0.00    +0.000 NA
ATOM     23  H   UNL     1       5.150   3.115   3.082  0.00  0.00    +0.000 HD
ATOM     24  H   UNL     1       4.655   4.714   3.241  0.00  0.00    +0.000 HD
ENDBRANCH  21  22
ENDBRANCH  20  21
ENDBRANCH  17  20
ENDBRANCH  13  17
ENDBRANCH   1  13
TORSDOF 9
ENDMDL
MODEL       96
REMARK  Name = ZINC01731876
REMARK  6 active torsions:
REMARK  status: ('A' for Active; 'I' for Inactive)
REMARK    1  A    between atoms: C_2  and  C_7
REMARK    2  A    between atoms: C_7  and  C_8
REMARK    3  A    between atoms: C_8  and  N_9
REMARK    4  A    between atoms: C_10  and  C_11
REMARK    5  A    between atoms: C_11  and  S_12
REMARK    6  A    between atoms: S_12  and  S_13
REMARK                            x       y       z     vdW  Elec       q    Type
REMARK                         _______ _______ _______ _____ _____    ______ ____
ROOT
ATOM      1  N   UNL     1       0.639   1.639   0.005  0.00  0.00    +0.000 N 
ATOM      2  C   UNL     1       0.237   0.329   0.002  0.00  0.00    +0.000 C 
ATOM      3  N   UNL     1       1.181  -0.586  -0.012  0.00  0.00    +0.000 N 
ATOM      4  H   UNL     1      -0.063   2.393   0.016  0.00  0.00    +0.000 HD
ATOM      5  H   UNL     1       2.182  -0.342  -0.021  0.00  0.00    +0.000 HD
ATOM      6  H   UNL     1       0.904  -1.578  -0.015  0.00  0.00    +0.000 HD
ENDROOT
BRANCH   1   7
ATOM      7  C   UNL     1       2.066   1.967  -0.007  0.00  0.00    +0.000 C 
BRANCH   7   8
ATOM      8  C   UNL     1       2.240   3.487  -0.001  0.00  0.00    +0.000 C 
BRANCH   8  10
ATOM      9  C   UNL     1       4.500   3.909   1.051  0.00  0.00    +0.000 A 
ATOM     10  C   UNL     1       3.709   3.825  -0.013  0.00  0.00    +0.000 A 
ATOM     11  N   UNL     1       4.471   4.109  -1.135  0.00  0.00    +0.000 N 
ATOM     12  C   UNL     1       5.732   4.359  -0.731  0.00  0.00    +0.000 A 
ATOM     13  S   UNL     1       7.051   4.761  -1.745  0.00  0.00    +0.000 S 
ATOM     14  N   UNL     1       5.773   4.238   0.611  0.00  0.00    +0.000 N 
ATOM     15  H   UNL     1       4.133   4.126  -2.108  0.00  0.00    +0.000 HD
ATOM     16  H   UNL     1       6.605   4.368   1.205  0.00  0.00    +0.000 HD
ENDBRANCH   8  10
ENDBRANCH   7   8
ENDBRANCH   1   7
BRANCH   2  17
ATOM     17  C   UNL     1      -1.232  -0.009   0.014  0.00  0.00    +0.000 C 
BRANCH  17  18
ATOM     18  S   UNL     1      -1.438  -1.811   0.006  0.00  0.00    +0.000 S 
BRANCH  18  19
ATOM     19  S   UNL     1      -0.800  -2.391   1.866  0.00  0.00    +0.000 S 
ATOM     20  O   UNL     1      -0.741  -3.811   1.851  0.00  0.00    +0.000 OA
ATOM     21  O   UNL     1       0.327  -1.585   2.179  0.00  0.00    +0.000 OA
ATOM     22  O   UNL     1      -1.894  -2.012   2.855  0.00  0.00    +0.000 OA
ENDBRANCH  18  19
ENDBRANCH  17  18
ENDBRANCH   2  17
TORSDOF 6
ENDMDL
MODEL       97
REMARK  Name = ZINC05829263
REMARK  10 active torsions:
REMARK  status: ('A' for Active; 'I' for Inactive)
REMARK    1  A    between atoms: C_1  and  C_2
REMARK    2  A    between atoms: C_3  and  C_4
REMARK    3  A    between atoms: C_3  and  N_20
REMARK    4  A    between atoms: N_10  and  C_13
REMARK    5  A    between atoms: C_13  and  C_14
REMARK    6  A    between atoms: C_16  and  C_17
REMARK    7  A    between atoms: C_16  and  N_20
REMARK    8  A    between atoms: C_17  and  N_21
REMARK    9  A    between atoms: C_18  and  N_21
REMARK   10  A    between atoms: C_19  and  N_21
REMARK                            x       y       z     vdW  Elec       q    Type
REMARK                         _______ _______ _______ _____ _____    ______ ____
ROOT
ATOM      1  C   UNL     1      -0.983   1.748  -3.668  0.00  0.00    +0.000 A 
ATOM      2  C   UNL     1      -0.916   3.264  -3.671  0.00  0.00    +0.000 A 
ATOM      3  O   UNL     1       0.147   3.846  -3.668  0.00  0.00    +0.000 OA
ATOM      4  N   UNL     1      -2.085   3.940  -3.675  0.00  0.00    +0.000 N 
ATOM      5  C   UNL     1      -3.266   3.312  -3.678  0.00  0.00    +0.000 A 
ATOM      6  O   UNL     1      -4.269   3.998  -3.683  0.00  0.00    +0.000 OA
ATOM      7  N   UNL     1      -3.425   1.983  -3.676  0.00  0.00    +0.000 N 
ATOM      8  C   UNL     1      -2.374   1.142  -3.668  0.00  0.00    +0.000 A 
ATOM      9  O   UNL     1      -2.536  -0.060  -3.664  0.00  0.00    +0.000 OA
ATOM     10  H   UNL     1      -2.066   4.969  -3.677  0.00  0.00    +0.000 HD
ENDROOT
BRANCH   1  13
ATOM     11  C   UNL     1       1.335   0.156  -3.958  0.00  0.00    +0.000 C 
ATOM     12  C   UNL     1       0.828   0.505  -2.582  0.00  0.00    +0.000 C 
ATOM     13  C   UNL     1      -0.254   1.249  -2.447  0.00  0.00    +0.000 C 
BRANCH  13  14
ATOM     14  N   UNL     1      -0.782   1.613  -1.172  0.00  0.00    +0.000 NA
ATOM     15  H   UNL     1      -0.814   2.640  -1.112  0.00  0.00    +0.000 HD
ATOM     16  H   UNL     1      -1.753   1.275  -1.110  0.00  0.00    +0.000 HD
BRANCH  14  17
ATOM     17  C   UNL     1      -0.013   1.086   0.008  0.00  0.00    +0.000 C 
BRANCH  17  18
ATOM     18  C   UNL     1      -0.729   1.579   1.267  0.00  0.00    +0.000 C 
BRANCH  18  21
ATOM     19  C   UNL     1      -0.530   1.735   3.675  0.00  0.00    +0.000 C 
ATOM     20  C   UNL     1      -0.102  -0.370   2.558  0.00  0.00    +0.000 C 
ATOM     21  N   UNL     1       0.009   1.100   2.454  0.00  0.00    +0.000 NA
ENDBRANCH  18  21
ENDBRANCH  17  18
ENDBRANCH  14  17
ENDBRANCH  13  14
ENDBRANCH   1  13
BRANCH   7  22
ATOM     22  C   UNL     1      -4.781   1.429  -3.680  0.00  0.00    +0.000 C 
BRANCH  22  23
ATOM     23  C   UNL     1      -5.240   1.237  -5.103  0.00  0.00    +0.000 C 
ATOM     24  C   UNL     1      -5.657   0.061  -5.503  0.00  0.00    +0.000 C 
ENDBRANCH  22  23
ENDBRANCH   7  22
TORSDOF 7
ENDMDL
MODEL       98
REMARK  Name = ZINC25495269
REMARK  11 active torsions:
REMARK  status: ('A' for Active; 'I' for Inactive)
REMARK    1  A    between atoms: C_1  and  C_2
REMARK    2  A    between atoms: C_2  and  O_3
REMARK    3  A    between atoms: O_3  and  C_4
REMARK    4  A    between atoms: C_4  and  C_6
REMARK    5  A    between atoms: C_6  and  C_7
REMARK    6  A    between atoms: C_7  and  C_8
REMARK    7  A    between atoms: C_7  and  C_15
REMARK    8  A    between atoms: C_8  and  C_14
REMARK    9  A    between atoms: N_9  and  N_10
REMARK   10  A    between atoms: C_15  and  C_21
REMARK   11  A    between atoms: N_16  and  N_17
REMARK                            x       y       z     vdW  Elec       q    Type
REMARK                         _______ _______ _______ _____ _____    ______ ____
ROOT
ATOM      1  C   UNL     1      -2.112  -0.637  -0.100  0.00  0.00    +0.000 C 
ENDROOT
BRANCH   1   2
ATOM      2  C   UNL     1      -2.265   0.856  -0.228  0.00  0.00    +0.000 C 
ATOM      3  N   UNL     1      -2.971   1.348  -1.176  0.00  0.00    +0.000 NA
ATOM      4  C   UNL     1      -1.588   1.771   0.759  0.00  0.00    +0.000 C 
BRANCH   3   5
ATOM      5  N   UNL     1      -3.506   0.506  -2.160  0.00  0.00    +0.000 N 
ATOM      6  C   UNL     1      -4.157   1.033  -3.216  0.00  0.00    +0.000 C 
ATOM      7  O   UNL     1      -4.546   0.310  -4.113  0.00  0.00    +0.000 OA
ATOM      8  N   UNL     1      -4.377   2.361  -3.278  0.00  0.00    +0.000 N 
ATOM      9  H   UNL     1      -3.401  -0.515  -2.077  0.00  0.00    +0.000 HD
ATOM     10  H   UNL     1      -4.048   2.974  -2.518  0.00  0.00    +0.000 HD
ATOM     11  H   UNL     1      -4.875   2.764  -4.085  0.00  0.00    +0.000 HD
ENDBRANCH   3   5
ENDBRANCH   1   2
BRANCH   1  12
ATOM     12  C   UNL     1      -0.647  -0.992  -0.077  0.00  0.00    +0.000 C 
ATOM     13  N   UNL     1      -0.129  -1.506   0.975  0.00  0.00    +0.000 NA
ATOM     14  C   UNL     1       0.208  -0.740  -1.292  0.00  0.00    +0.000 C 
BRANCH  13  15
ATOM     15  N   UNL     1       1.254  -1.722   1.040  0.00  0.00    +0.000 N 
ATOM     16  C   UNL     1       1.786  -2.360   2.102  0.00  0.00    +0.000 C 
ATOM     17  O   UNL     1       2.993  -2.468   2.204  0.00  0.00    +0.000 OA
ATOM     18  N   UNL     1       0.981  -2.876   3.051  0.00  0.00    +0.000 N 
ATOM     19  H   UNL     1       1.863  -1.395   0.278  0.00  0.00    +0.000 HD
ATOM     20  H   UNL     1      -0.042  -2.784   2.966  0.00  0.00    +0.000 HD
ATOM     21  H   UNL     1       1.388  -3.363   3.863  0.00  0.00    +0.000 HD
ENDBRANCH  13  15
ENDBRANCH   1  12
BRANCH   1  22
ATOM     22  C   UNL     1      -2.770  -1.108   1.199  0.00  0.00    +0.000 C 
BRANCH  22  23
ATOM     23  C   UNL     1      -2.756  -2.614   1.252  0.00  0.00    +0.000 C 
ATOM     24  O   UNL     1      -2.220  -3.245   0.371  0.00  0.00    +0.000 OA
BRANCH  23  25
ATOM     25  O   UNL     1      -3.340  -3.255   2.276  0.00  0.00    +0.000 OA
BRANCH  25  27
ATOM     26  C   UNL     1      -4.000  -5.254   3.501  0.00  0.00    +0.000 C 
ATOM     27  C   UNL     1      -3.288  -4.706   2.262  0.00  0.00    +0.000 C 
ENDBRANCH  25  27
ENDBRANCH  23  25
ENDBRANCH  22  23
ENDBRANCH   1  22
TORSDOF 8
ENDMDL
MODEL       99
REMARK  Name = ZINC01818846
REMARK  8 active torsions:
REMARK  status: ('A' for Active; 'I' for Inactive)
REMARK    1  A    between atoms: C_1  and  C_2
REMARK    2  A    between atoms: C_1  and  C_15
REMARK    3  A    between atoms: C_2  and  C_3
REMARK    4  A    between atoms: C_3  and  C_4
REMARK    5  A    between atoms: N_6  and  N_7
REMARK    6  A    between atoms: C_8  and  C_9
REMARK    7  A    between atoms: C_15  and  C_16
REMARK    8  A    between atoms: C_16  and  O_17
REMARK                            x       y       z     vdW  Elec       q    Type
REMARK                         _______ _______ _______ _____ _____    ______ ____
ROOT
ATOM      1  N   UNL     1      -4.068   0.025   0.021  0.00  0.00    +0.000 N 
ATOM      2  C   UNL     1      -2.695  -0.083   0.014  0.00  0.00    +0.000 C 
ATOM      3  N   UNL     1      -2.065  -1.247   0.004  0.00  0.00    +0.000 NA
ATOM      4  H   UNL     1      -4.511   0.955   0.029  0.00  0.00    +0.000 HD
ATOM      5  H   UNL     1      -2.637  -2.103   0.002  0.00  0.00    +0.000 HD
ENDROOT
BRANCH   2   6
ATOM      6  C   UNL     1      -1.855   1.138   0.017  0.00  0.00    +0.000 A 
ATOM      7  C   UNL     1      -0.378   1.247   0.010  0.00  0.00    +0.000 A 
ATOM      8  N   UNL     1      -0.188   2.546   0.022  0.00  0.00    +0.000 NA
ATOM      9  O   UNL     1      -1.257   3.109   0.025  0.00  0.00    +0.000 OA
ATOM     10  N   UNL     1      -2.233   2.397   0.026  0.00  0.00    +0.000 NA
ATOM     11  N   UNL     1       0.568   0.230   0.000  0.00  0.00    +0.000 N 
ATOM     12  H   UNL     1       0.156  -0.714  -0.003  0.00  0.00    +0.000 HD
ATOM     13  H   UNL     1       1.587   0.378  -0.004  0.00  0.00    +0.000 HD
ENDBRANCH   2   6
BRANCH   1  16
ATOM     14  C   UNL     1      -6.206  -1.023   0.026  0.00  0.00    +0.000 C 
ATOM     15  O   UNL     1      -6.728   0.072   0.035  0.00  0.00    +0.000 OA
ATOM     16  N   UNL     1      -4.862  -1.129   0.018  0.00  0.00    +0.000 N 
ATOM     17  H   UNL     1      -4.419  -2.059   0.011  0.00  0.00    +0.000 HD
BRANCH  14  18
ATOM     18  C   UNL     1      -7.060  -2.264   0.023  0.00  0.00    +0.000 C 
BRANCH  18  19
ATOM     19  C   UNL     1      -8.537  -1.867   0.032  0.00  0.00    +0.000 C 
BRANCH  19  20
ATOM     20  C   UNL     1      -9.405  -3.128   0.029  0.00  0.00    +0.000 C 
BRANCH  20  21
ATOM     21  C   UNL     1     -10.882  -2.730   0.039  0.00  0.00    +0.000 C 
BRANCH  21  22
ATOM     22  C   UNL     1     -11.749  -3.991   0.035  0.00  0.00    +0.000 C 
BRANCH  22  23
ATOM     23  O   UNL     1     -13.129  -3.620   0.044  0.00  0.00    +0.000 OA
ATOM     24  H   UNL     1     -13.332  -3.079  -0.760  0.00  0.00    +0.000 HD
ENDBRANCH  22  23
ENDBRANCH  21  22
ENDBRANCH  20  21
ENDBRANCH  19  20
ENDBRANCH  18  19
ENDBRANCH  14  18
ENDBRANCH   1  16
TORSDOF 8
ENDMDL
MODEL      100
REMARK  Name = ZINC16698373
REMARK  12 active torsions:
REMARK  status: ('A' for Active; 'I' for Inactive)
REMARK    1  A    between atoms: C_1  and  O_2
REMARK    2  A    between atoms: O_2  and  C_3
REMARK    3  A    between atoms: C_5  and  O_17
REMARK    4  A    between atoms: C_6  and  C_11
REMARK    5  A    between atoms: C_7  and  O_9
REMARK    6  A    between atoms: O_9  and  C_10
REMARK    7  A    between atoms: C_11  and  C_12
REMARK    8  A    between atoms: C_12  and  C_13
REMARK    9  A    between atoms: C_12  and  N_20
REMARK   10  A    between atoms: C_13  and  C_14
REMARK   11  A    between atoms: C_14  and  C_15
REMARK   12  A    between atoms: O_17  and  C_18
REMARK                            x       y       z     vdW  Elec       q    Type
REMARK                         _______ _______ _______ _____ _____    ______ ____
ROOT
ATOM      1  C   UNL     1      -4.082   2.630   2.487  0.00  0.00    +0.000 A 
ATOM      2  C   UNL     1      -4.162   3.315   1.284  0.00  0.00    +0.000 A 
ATOM      3  C   UNL     1      -3.564   2.792   0.147  0.00  0.00    +0.000 A 
ATOM      4  C   UNL     1      -2.885   1.584   0.214  0.00  0.00    +0.000 A 
ATOM      5  C   UNL     1      -2.809   0.897   1.417  0.00  0.00    +0.000 A 
ATOM      6  C   UNL     1      -3.404   1.422   2.554  0.00  0.00    +0.000 A 
ENDROOT
BRANCH   1   8
ATOM      7  C   UNL     1      -4.546   2.384   4.806  0.00  0.00    +0.000 C 
ATOM      8  O   UNL     1      -4.668   3.143   3.601  0.00  0.00    +0.000 OA
ENDBRANCH   1   8
BRANCH   5   9
ATOM      9  O   UNL     1      -2.149  -0.289   1.481  0.00  0.00    +0.000 OA
ATOM     10  C   UNL     1      -2.111  -0.942   2.751  0.00  0.00    +0.000 C 
ENDBRANCH   5   9
BRANCH   3  11
ATOM     11  O   UNL     1      -3.642   3.463  -1.032  0.00  0.00    +0.000 OA
ATOM     12  C   UNL     1      -4.357   4.700  -1.028  0.00  0.00    +0.000 C 
ENDBRANCH   3  11
BRANCH   4  13
ATOM     13  C   UNL     1      -2.234   1.016  -1.020  0.00  0.00    +0.000 C 
BRANCH  13  14
ATOM     14  C   UNL     1      -0.795   1.527  -1.120  0.00  0.00    +0.000 C 
BRANCH  14  15
ATOM     15  N   UNL     1      -0.025   1.014   0.027  0.00  0.00    +0.000 N 
ATOM     16  H   UNL     1      -0.024  -0.016   0.013  0.00  0.00    +0.000 HD
ATOM     17  H   UNL     1      -0.446   1.347   0.906  0.00  0.00    +0.000 HD
ATOM     18  H   UNL     1       0.945   1.355  -0.035  0.00  0.00    +0.000 HD
ENDBRANCH  14  15
BRANCH  14  19
ATOM     19  C   UNL     1      -0.175   1.052  -2.435  0.00  0.00    +0.000 C 
BRANCH  19  20
ATOM     20  C   UNL     1       1.218   1.664  -2.593  0.00  0.00    +0.000 C 
BRANCH  20  21
ATOM     21  C   UNL     1       1.828   1.196  -3.889  0.00  0.00    +0.000 C 
ATOM     22  O   UNL     1       1.213   0.450  -4.612  0.00  0.00    +0.000 OA
ATOM     23  O   UNL     1       3.057   1.609  -4.240  0.00  0.00    +0.000 OA
ENDBRANCH  20  21
ENDBRANCH  19  20
ENDBRANCH  14  19
ENDBRANCH  13  14
ENDBRANCH   4  13
TORSDOF 9
ENDMDL
MODEL      101
REMARK  Name = ZINC03450467
REMARK  8 active torsions:
REMARK  status: ('A' for Active; 'I' for Inactive)
REMARK    1  A    between atoms: C_1  and  C_2
REMARK    2  A    between atoms: C_2  and  O_3
REMARK    3  A    between atoms: O_3  and  C_4
REMARK    4  A    between atoms: C_6  and  C_15
REMARK    5  A    between atoms: C_9  and  O_10
REMARK    6  A    between atoms: O_10  and  C_11
REMARK    7  A    between atoms: C_11  and  C_12
REMARK    8  A    between atoms: N_16  and  N_17
REMARK                            x       y       z     vdW  Elec       q    Type
REMARK                         _______ _______ _______ _____ _____    ______ ____
ROOT
ATOM      1  C   UNL     1       0.715   0.466  -0.002  0.00  0.00    +0.000 A 
ATOM      2  C   UNL     1       0.307  -0.855  -0.005  0.00  0.00    +0.000 A 
ATOM      3  C   UNL     1       1.260  -1.876  -0.019  0.00  0.00    +0.000 A 
ATOM      4  C   UNL     1       2.621  -1.558  -0.031  0.00  0.00    +0.000 A 
ATOM      5  C   UNL     1       3.019  -0.237  -0.033  0.00  0.00    +0.000 A 
ATOM      6  C   UNL     1       2.073   0.776  -0.013  0.00  0.00    +0.000 A 
ENDROOT
BRANCH   3   7
ATOM      7  C   UNL     1       0.832  -3.287  -0.024  0.00  0.00    +0.000 C 
ATOM      8  N   UNL     1       1.718  -4.234  -0.037  0.00  0.00    +0.000 NA
BRANCH   8   9
ATOM      9  N   UNL     1       1.311  -5.575  -0.041  0.00  0.00    +0.000 N 
ATOM     10  C   UNL     1       2.251  -6.580  -0.056  0.00  0.00    +0.000 C 
ATOM     11  N   UNL     1       1.851  -7.896  -0.059  0.00  0.00    +0.000 N 
ATOM     12  N   UNL     1       3.525  -6.214  -0.065  0.00  0.00    +0.000 N 
ATOM     13  H   UNL     1       0.307  -5.808  -0.033  0.00  0.00    +0.000 HD
ATOM     14  H   UNL     1       0.848  -8.129  -0.051  0.00  0.00    +0.000 HD
ATOM     15  H   UNL     1       2.554  -8.648  -0.070  0.00  0.00    +0.000 HD
ATOM     16  H   UNL     1       3.811  -5.224  -0.062  0.00  0.00    +0.000 HD
ATOM     17  H   UNL     1       4.247  -6.948  -0.076  0.00  0.00    +0.000 HD
ENDBRANCH   8   9
ENDBRANCH   3   7
BRANCH   6  18
ATOM     18  O   UNL     1       2.472   2.076  -0.010  0.00  0.00    +0.000 OA
BRANCH  18  19
ATOM     19  C   UNL     1       3.879   2.323  -0.022  0.00  0.00    +0.000 C 
BRANCH  19  20
ATOM     20  C   UNL     1       4.129   3.809  -0.016  0.00  0.00    +0.000 C 
ATOM     21  O   UNL     1       3.193   4.581  -0.003  0.00  0.00    +0.000 OA
ATOM     22  N   UNL     1       5.391   4.281  -0.026  0.00  0.00    +0.000 N 
ATOM     23  H   UNL     1       6.186   3.625  -0.037  0.00  0.00    +0.000 HD
ATOM     24  H   UNL     1       5.562   5.296  -0.022  0.00  0.00    +0.000 HD
ENDBRANCH  19  20
ENDBRANCH  18  19
ENDBRANCH   6  18
BRANCH   1  25
ATOM     25  O   UNL     1      -0.210   1.463   0.013  0.00  0.00    +0.000 OA
BRANCH  25  27
ATOM     26  C   UNL     1      -2.469   2.321   0.040  0.00  0.00    +0.000 C 
ATOM     27  C   UNL     1      -1.584   1.073   0.025  0.00  0.00    +0.000 C 
ENDBRANCH  25  27
ENDBRANCH   1  25
TORSDOF 7
ENDMDL
MODEL      102
REMARK  Name = ZINC05113155
REMARK  7 active torsions:
REMARK  status: ('A' for Active; 'I' for Inactive)
REMARK    1  A    between atoms: C_1  and  C_2
REMARK    2  A    between atoms: C_1  and  C_8
REMARK    3  A    between atoms: C_2  and  C_3
REMARK    4  A    between atoms: C_3  and  C_4
REMARK    5  A    between atoms: C_4  and  S_5
REMARK    6  A    between atoms: C_8  and  C_9
REMARK    7  A    between atoms: C_9  and  N_14
REMARK                            x       y       z     vdW  Elec       q    Type
REMARK                         _______ _______ _______ _____ _____    ______ ____
ROOT
ATOM      1  C   UNL     1      -2.751  -0.446  -0.167  0.00  0.00    +0.000 C 
ENDROOT
BRANCH   1   5
ATOM      2  C   UNL     1      -1.122   1.374   0.142  0.00  0.00    +0.000 C 
ATOM      3  N   UNL     1      -0.095   0.465   0.241  0.00  0.00    +0.000 N 
ATOM      4  N   UNL     1      -0.866   2.718   0.280  0.00  0.00    +0.000 N 
ATOM      5  N   UNL     1      -2.389   1.011  -0.091  0.00  0.00    +0.000 N 
ATOM      6  H   UNL     1       0.866   0.791   0.418  0.00  0.00    +0.000 HD
ATOM      7  H   UNL     1      -0.287  -0.542   0.138  0.00  0.00    +0.000 HD
ATOM      8  H   UNL     1       0.096   3.044   0.457  0.00  0.00    +0.000 HD
ATOM      9  H   UNL     1      -1.635   3.399   0.205  0.00  0.00    +0.000 HD
ATOM     10  H   UNL     1      -3.116   1.730  -0.217  0.00  0.00    +0.000 HD
ENDBRANCH   1   5
BRANCH   1  11
ATOM     11  C   UNL     1      -3.691  -0.775   0.994  0.00  0.00    +0.000 C 
BRANCH  11  12
ATOM     12  C   UNL     1      -4.118  -2.241   0.906  0.00  0.00    +0.000 C 
BRANCH  12  13
ATOM     13  C   UNL     1      -5.058  -2.570   2.068  0.00  0.00    +0.000 C 
BRANCH  13  14
ATOM     14  C   UNL     1      -5.485  -4.036   1.979  0.00  0.00    +0.000 C 
BRANCH  14  15
ATOM     15  C   UNL     1      -6.425  -4.365   3.141  0.00  0.00    +0.000 C 
BRANCH  15  16
ATOM     16  S   UNL     1      -6.931  -6.104   3.036  0.00  0.00    +0.000 S 
ATOM     17  O   UNL     1      -7.758  -6.305   1.898  0.00  0.00    +0.000 OA
ATOM     18  O   UNL     1      -5.819  -6.953   3.283  0.00  0.00    +0.000 OA
ATOM     19  O   UNL     1      -7.854  -6.315   4.228  0.00  0.00    +0.000 OA
ENDBRANCH  15  16
ENDBRANCH  14  15
ENDBRANCH  13  14
ENDBRANCH  12  13
ENDBRANCH  11  12
ENDBRANCH   1  11
TORSDOF 7
ENDMDL
MODEL      103
REMARK  Name = ZINC05114471
REMARK  11 active torsions:
REMARK  status: ('A' for Active; 'I' for Inactive)
REMARK    1  A    between atoms: C_1  and  C_2
REMARK    2  A    between atoms: C_2  and  C_3
REMARK    3  A    between atoms: C_2  and  C_4
REMARK    4  A    between atoms: C_4  and  C_5
REMARK    5  A    between atoms: C_4  and  N_20
REMARK    6  A    between atoms: C_5  and  C_6
REMARK    7  A    between atoms: C_5  and  N_18
REMARK    8  A    between atoms: CA_9  and  CB_10
REMARK    9  A    between atoms: CA_9  and  C_16
REMARK   10  A    between atoms: CA_9  and  N_18
REMARK   11  A    between atoms: CB_10  and  CG_11
REMARK                            x       y       z     vdW  Elec       q    Type
REMARK                         _______ _______ _______ _____ _____    ______ ____
ROOT
ATOM      1  C   UNK A   0       0.304  -3.083  -1.937  0.00  0.00    +0.000 C 
ENDROOT
BRANCH   1   2
ATOM      2  C   UNK A   0       1.196  -4.088  -2.619  0.00  0.00    +0.000 C 
ATOM      3  O   UNK A   0       2.157  -4.541  -2.036  0.00  0.00    +0.000 OA
ATOM      4  N   UNK A   0       0.924  -4.484  -3.878  0.00  0.00    +0.000 N 
ATOM      5  H   UNK A   0       0.107  -4.100  -4.374  0.00  0.00    +0.000 HD
ATOM      6  H   UNK A   0       1.533  -5.172  -4.345  0.00  0.00    +0.000 HD
ENDBRANCH   1   2
BRANCH   1   7
ATOM      7  N   HIS A   1       0.816  -2.811  -0.580  0.00  0.00    +0.000 NA
ATOM      8  H   HIS A   1       0.446  -1.909  -0.249  0.00  0.00    +0.000 HD
BRANCH   7   9
ATOM      9  CA  HIS A   1       0.401  -3.880   0.348  0.00  0.00    +0.000 C 
BRANCH   9  10
ATOM     10  C   HIS A   1      -0.986  -3.589   0.862  0.00  0.00    +0.000 C 
ATOM     11  O   HIS A   1      -1.378  -2.448   0.929  0.00  0.00    +0.000 OA
ATOM     12  OXT HIS A   1      -1.785  -4.597   1.244  0.00  0.00    +0.000 OA
ENDBRANCH   9  10
BRANCH   9  13
ATOM     13  CB  HIS A   1       1.379  -3.934   1.523  0.00  0.00    +0.000 C 
BRANCH  13  14
ATOM     14  CG  HIS A   1       2.740  -4.345   1.024  0.00  0.00    +0.000 A 
ATOM     15  CD2 HIS A   1       3.685  -3.536   0.508  0.00  0.00    +0.000 A 
ATOM     16  NE2 HIS A   1       4.747  -4.289   0.188  0.00  0.00    +0.000 NA
ATOM     17  CE1 HIS A   1       4.497  -5.535   0.485  0.00  0.00    +0.000 A 
ATOM     18  ND1 HIS A   1       3.257  -5.613   1.015  0.00  0.00    +0.000 N 
ATOM     19  HD1 HIS A   1       2.788  -6.467   1.349  0.00  0.00    +0.000 HD
ENDBRANCH  13  14
ENDBRANCH   9  13
ENDBRANCH   7   9
ENDBRANCH   1   7
BRANCH   1  20
ATOM     20  C   UNK A   0       0.296  -1.781  -2.740  0.00  0.00    +0.000 C 
BRANCH  20  21
ATOM     21  N   UNK A   0      -0.274  -2.044  -4.073  0.00  0.00    +0.000 N 
ATOM     22  H   UNK A   0      -0.283  -1.169  -4.615  0.00  0.00    +0.000 HD
ATOM     23  H   UNK A   0      -1.240  -2.386  -3.965  0.00  0.00    +0.000 HD
ATOM     24  H   UNK A   0       0.292  -2.752  -4.564  0.00  0.00    +0.000 HD
ENDBRANCH  20  21
BRANCH  20  26
ATOM     25  C   UNK A   0      -1.999  -1.179  -1.956  0.00  0.00    +0.000 C 
ATOM     26  C   UNK A   0      -0.537  -0.731  -2.001  0.00  0.00    +0.000 C 
ATOM     27  C   UNK A   0      -0.436   0.608  -2.734  0.00  0.00    +0.000 C 
ENDBRANCH  20  26
ENDBRANCH   1  20
TORSDOF 9
ENDMDL
MODEL      104
REMARK  Name = ZINC02305055
REMARK  10 active torsions:
REMARK  status: ('A' for Active; 'I' for Inactive)
REMARK    1  A    between atoms: C_1  and  C_2
REMARK    2  A    between atoms: C_2  and  N_3
REMARK    3  A    between atoms: N_3  and  C_4
REMARK    4  A    between atoms: N_3  and  C_6
REMARK    5  A    between atoms: C_4  and  C_5
REMARK    6  A    between atoms: C_6  and  C_7
REMARK    7  A    between atoms: C_7  and  N_8
REMARK    8  A    between atoms: N_8  and  C_9
REMARK    9  A    between atoms: N_15  and  C_18
REMARK   10  A    between atoms: C_18  and  C_19
REMARK                            x       y       z     vdW  Elec       q    Type
REMARK                         _______ _______ _______ _____ _____    ______ ____
ROOT
ATOM      1  C   UNL     1       0.306   4.836  -0.597  0.00  0.00    +0.000 C 
ATOM      2  C   UNL     1       0.955   4.701   0.757  0.00  0.00    +0.000 C 
ATOM      3  C   UNL     1       1.091   3.224   1.070  0.00  0.00    +0.000 C 
ATOM      4  N   UNL     1       2.289   2.756   1.310  0.00  0.00    +0.000 N 
ATOM      5  C   UNL     1       3.383   3.525   1.278  0.00  0.00    +0.000 C 
ATOM      6  O   UNL     1       4.452   2.994   1.510  0.00  0.00    +0.000 OA
ATOM      7  N   UNL     1       3.386   4.838   1.014  0.00  0.00    +0.000 N 
ATOM      8  C   UNL     1       2.242   5.505   0.746  0.00  0.00    +0.000 C 
ATOM      9  O   UNL     1       2.244   6.694   0.506  0.00  0.00    +0.000 OA
ATOM     10  O   UNL     1       0.015   2.421   1.106  0.00  0.00    +0.000 OA
ATOM     11  H   UNL     1       2.394   1.756   1.532  0.00  0.00    +0.000 HD
ENDROOT
BRANCH   1  12
ATOM     12  N   UNL     1      -0.808   5.453  -0.713  0.00  0.00    +0.000 N 
ATOM     13  H   UNL     1      -1.262   5.858   0.118  0.00  0.00    +0.000 HD
BRANCH  12  14
ATOM     14  C   UNL     1      -1.439   5.584  -2.029  0.00  0.00    +0.000 C 
BRANCH  14  15
ATOM     15  C   UNL     1      -2.762   4.816  -2.039  0.00  0.00    +0.000 C 
BRANCH  15  16
ATOM     16  N   UNL     1      -3.395   4.948  -3.358  0.00  0.00    +0.000 N 
ATOM     17  H   UNL     1      -3.438   5.950  -3.590  0.00  0.00    +0.000 HD
BRANCH  16  18
ATOM     18  C   UNL     1      -4.769   4.429  -3.338  0.00  0.00    +0.000 C 
ATOM     19  C   UNL     1      -5.520   4.924  -4.575  0.00  0.00    +0.000 C 
ENDBRANCH  16  18
BRANCH  16  21
ATOM     20  C   UNL     1      -2.486   2.788  -4.071  0.00  0.00    +0.000 C 
ATOM     21  C   UNL     1      -2.595   4.280  -4.394  0.00  0.00    +0.000 C 
ENDBRANCH  16  21
ENDBRANCH  15  16
ENDBRANCH  14  15
ENDBRANCH  12  14
ENDBRANCH   1  12
BRANCH   7  22
ATOM     22  C   UNL     1       4.658   5.566   1.017  0.00  0.00    +0.000 C 
BRANCH  22  23
ATOM     23  C   UNL     1       4.931   6.094   2.402  0.00  0.00    +0.000 C 
ATOM     24  C   UNL     1       6.057   5.800   3.004  0.00  0.00    +0.000 C 
ENDBRANCH  22  23
ENDBRANCH   7  22
TORSDOF 8
ENDMDL
MODEL      105
REMARK  Name = ZINC10436492
REMARK  9 active torsions:
REMARK  status: ('A' for Active; 'I' for Inactive)
REMARK    1  A    between atoms: C_4  and  C_14
REMARK    2  A    between atoms: C_5  and  C_7
REMARK    3  A    between atoms: C_7  and  N_16
REMARK    4  A    between atoms: C_8  and  C_9
REMARK    5  A    between atoms: C_8  and  N_16
REMARK    6  A    between atoms: C_9  and  O_10
REMARK    7  A    between atoms: O_10  and  C_11
REMARK    8  A    between atoms: C_11  and  C_12
REMARK    9  A    between atoms: C_12  and  O_13
REMARK                            x       y       z     vdW  Elec       q    Type
REMARK                         _______ _______ _______ _____ _____    ______ ____
ROOT
ATOM      1  C   UNL     1      -0.795   1.527  -1.120  0.00  0.00    +0.000 C 
ENDROOT
BRANCH   1   6
ATOM      2  C   UNL     1      -3.793  -0.649  -1.853  0.00  0.00    +0.000 A 
ATOM      3  C   UNL     1      -4.745  -0.122  -0.997  0.00  0.00    +0.000 A 
ATOM      4  C   UNL     1      -4.426   0.939  -0.176  0.00  0.00    +0.000 A 
ATOM      5  C   UNL     1      -3.141   1.483  -0.210  0.00  0.00    +0.000 A 
ATOM      6  C   UNL     1      -2.186   0.947  -1.076  0.00  0.00    +0.000 A 
ATOM      7  C   UNL     1      -2.519  -0.111  -1.896  0.00  0.00    +0.000 A 
BRANCH   5   8
ATOM      8  C   UNL     1      -2.792   2.620   0.666  0.00  0.00    +0.000 C 
ATOM      9  O   UNL     1      -1.673   3.091   0.634  0.00  0.00    +0.000 OA
ATOM     10  O   UNL     1      -3.716   3.135   1.500  0.00  0.00    +0.000 OA
ENDBRANCH   5   8
ENDBRANCH   1   6
BRANCH   1  11
ATOM     11  N   UNL     1      -0.015   0.998   0.015  0.00  0.00    +0.000 N 
ATOM     12  H   UNL     1      -0.477   1.259   0.898  0.00  0.00    +0.000 HD
ATOM     13  H   UNL     1       0.031  -0.029  -0.051  0.00  0.00    +0.000 HD
BRANCH  11  14
ATOM     14  C   UNL     1       1.353   1.550  -0.003  0.00  0.00    +0.000 C 
BRANCH  14  15
ATOM     15  C   UNL     1       2.136   0.985   1.184  0.00  0.00    +0.000 C 
BRANCH  15  16
ATOM     16  O   UNL     1       2.292  -0.427   1.022  0.00  0.00    +0.000 OA
BRANCH  16  17
ATOM     17  C   UNL     1       3.014  -1.057   2.082  0.00  0.00    +0.000 C 
BRANCH  17  18
ATOM     18  C   UNL     1       3.120  -2.558   1.806  0.00  0.00    +0.000 C 
BRANCH  18  19
ATOM     19  O   UNL     1       3.906  -2.772   0.633  0.00  0.00    +0.000 OA
ATOM     20  H   UNL     1       4.813  -2.398   0.769  0.00  0.00    +0.000 HD
ENDBRANCH  18  19
ENDBRANCH  17  18
ENDBRANCH  16  17
ENDBRANCH  15  16
ENDBRANCH  14  15
ENDBRANCH  11  14
ENDBRANCH   1  11
TORSDOF 9
ENDMDL
MODEL      106
REMARK  Name = ZINC13354670
REMARK  9 active torsions:
REMARK  status: ('A' for Active; 'I' for Inactive)
REMARK    1  A    between atoms: C_7  and  C_10
REMARK    2  A    between atoms: C_10  and  C_11
REMARK    3  A    between atoms: N_13  and  C_14
REMARK    4  A    between atoms: C_14  and  C_15
REMARK    5  A    between atoms: C_15  and  C_16
REMARK    6  A    between atoms: C_16  and  C_17
REMARK    7  A    between atoms: C_17  and  C_18
REMARK    8  A    between atoms: C_18  and  C_19
REMARK    9  A    between atoms: C_18  and  N_22
REMARK                            x       y       z     vdW  Elec       q    Type
REMARK                         _______ _______ _______ _____ _____    ______ ____
ROOT
ATOM      1  C   UNK     1      -5.928   5.822  -4.326  0.00  0.00    +0.000 C 
ATOM      2  O   UNK     1      -6.642   6.139  -3.398  0.00  0.00    +0.000 OA
ATOM      3  N   UNK     1      -4.844   5.051  -4.109  0.00  0.00    +0.000 N 
ATOM      4  H   UNK     1      -4.238   4.782  -4.897  0.00  0.00    +0.000 HD
ENDROOT
BRANCH   1   5
ATOM      5  C   UNK     1      -6.253   6.290  -5.721  0.00  0.00    +0.000 C 
BRANCH   5  12
ATOM      6  C   UNK     1      -7.048  10.829  -4.864  0.00  0.00    +0.000 A 
ATOM      7  C   UNK     1      -8.391  11.169  -4.950  0.00  0.00    +0.000 A 
ATOM      8  C   UNK     1      -9.338  10.217  -5.259  0.00  0.00    +0.000 A 
ATOM      9  C   UNK     1      -8.947   8.902  -5.489  0.00  0.00    +0.000 A 
ATOM     10  C   UNK     1      -7.584   8.563  -5.400  0.00  0.00    +0.000 A 
ATOM     11  C   UNK     1      -6.641   9.544  -5.085  0.00  0.00    +0.000 A 
ATOM     12  C   UNK     1      -7.504   7.130  -5.691  0.00  0.00    +0.000 A 
ATOM     13  C   UNK     1      -8.755   6.707  -5.931  0.00  0.00    +0.000 A 
ATOM     14  N   UNK     1      -9.631   7.751  -5.809  0.00  0.00    +0.000 N 
ATOM     15  H   UNK     1     -10.651   7.686  -5.938  0.00  0.00    +0.000 HD
ENDBRANCH   5  12
ENDBRANCH   1   5
BRANCH   3  16
ATOM     16  C   UNK     1      -4.529   4.596  -2.753  0.00  0.00    +0.000 C 
BRANCH  16  17
ATOM     17  C   UNK     1      -3.259   3.743  -2.783  0.00  0.00    +0.000 C 
BRANCH  17  18
ATOM     18  C   UNK     1      -2.929   3.268  -1.367  0.00  0.00    +0.000 C 
BRANCH  18  19
ATOM     19  C   UNK     1      -1.659   2.415  -1.398  0.00  0.00    +0.000 C 
BRANCH  19  20
ATOM     20  C   UNK     1      -1.329   1.940   0.019  0.00  0.00    +0.000 C 
BRANCH  20  21
ATOM     21  N   UNK     1      -2.381   1.034   0.515  0.00  0.00    +0.000 N 
ATOM     22  H   UNK     1      -2.449   0.221  -0.113  0.00  0.00    +0.000 HD
ATOM     23  H   UNK     1      -3.281   1.535   0.522  0.00  0.00    +0.000 HD
ATOM     24  H   UNK     1      -2.151   0.719   1.469  0.00  0.00    +0.000 HD
ENDBRANCH  20  21
BRANCH  20  25
ATOM     25  C   UNK     1      -0.014   1.204   0.009  0.00  0.00    +0.000 C 
ATOM     26  O   UNK     1       0.002  -0.004   0.002  0.00  0.00    +0.000 OA
ATOM     27  O   UNK     1       1.139   1.891   0.001  0.00  0.00    +0.000 OA
ENDBRANCH  20  25
ENDBRANCH  19  20
ENDBRANCH  18  19
ENDBRANCH  17  18
ENDBRANCH  16  17
ENDBRANCH   3  16
TORSDOF 9
ENDMDL
MODEL      107
REMARK  Name = ZINC31971674
REMARK  11 active torsions:
REMARK  status: ('A' for Active; 'I' for Inactive)
REMARK    1  A    between atoms: C_1  and  O_2
REMARK    2  A    between atoms: O_2  and  C_3
REMARK    3  A    between atoms: C_3  and  C_4
REMARK    4  A    between atoms: N_6  and  C_7
REMARK    5  A    between atoms: C_10  and  N_15
REMARK    6  A    between atoms: C_12  and  O_13
REMARK    7  A    between atoms: O_13  and  C_14
REMARK    8  A    between atoms: C_16  and  C_18
REMARK    9  A    between atoms: C_18  and  C_19
REMARK   10  A    between atoms: C_19  and  C_20
REMARK   11  A    between atoms: C_20  and  N_21
REMARK                            x       y       z     vdW  Elec       q    Type
REMARK                         _______ _______ _______ _____ _____    ______ ____
ROOT
ATOM      1  C   UNL     1      -4.683  -0.400  -0.261  0.00  0.00    +0.000 A 
ATOM      2  C   UNL     1      -3.453  -1.035  -0.172  0.00  0.00    +0.000 A 
ATOM      3  C   UNL     1      -2.293  -0.289  -0.093  0.00  0.00    +0.000 A 
ATOM      4  C   UNL     1      -2.357   1.098  -0.091  0.00  0.00    +0.000 A 
ATOM      5  C   UNL     1      -3.586   1.738  -0.180  0.00  0.00    +0.000 A 
ATOM      6  C   UNL     1      -4.749   0.991  -0.264  0.00  0.00    +0.000 A 
ENDROOT
BRANCH   1   9
ATOM      7  C   UNL     1      -5.956  -2.330   0.314  0.00  0.00    +0.000 C 
ATOM      8  O   UNL     1      -4.997  -2.769   0.912  0.00  0.00    +0.000 OA
ATOM      9  N   UNL     1      -5.860  -1.159  -0.346  0.00  0.00    +0.000 N 
ATOM     10  H   UNL     1      -6.651  -0.820  -0.913  0.00  0.00    +0.000 HD
BRANCH   7  11
ATOM     11  C   UNL     1      -7.255  -3.093   0.308  0.00  0.00    +0.000 C 
BRANCH  11  13
ATOM     12  C   UNL     1      -8.288  -5.095   1.129  0.00  0.00    +0.000 C 
ATOM     13  O   UNL     1      -7.106  -4.293   1.071  0.00  0.00    +0.000 OA
ENDBRANCH  11  13
ENDBRANCH   7  11
ENDBRANCH   1   9
BRANCH   4  14
ATOM     14  N   UNL     1      -1.179   1.852  -0.006  0.00  0.00    +0.000 N 
ATOM     15  C   UNL     1      -0.086   1.331   0.586  0.00  0.00    +0.000 C 
ATOM     16  O   UNL     1      -0.151   0.253   1.137  0.00  0.00    +0.000 OA
ATOM     17  H   UNL     1      -1.149   2.805  -0.395  0.00  0.00    +0.000 HD
BRANCH  15  18
ATOM     18  C   UNL     1       1.218   2.085   0.556  0.00  0.00    +0.000 C 
BRANCH  18  19
ATOM     19  C   UNL     1       2.291   1.276   1.288  0.00  0.00    +0.000 C 
BRANCH  19  20
ATOM     20  C   UNL     1       3.615   2.042   1.258  0.00  0.00    +0.000 C 
BRANCH  20  21
ATOM     21  N   UNL     1       4.646   1.265   1.960  0.00  0.00    +0.000 N 
ATOM     22  H   UNL     1       4.766   0.354   1.496  0.00  0.00    +0.000 HD
ATOM     23  H   UNL     1       4.358   1.116   2.938  0.00  0.00    +0.000 HD
ATOM     24  H   UNL     1       5.538   1.780   1.941  0.00  0.00    +0.000 HD
ENDBRANCH  20  21
ENDBRANCH  19  20
ENDBRANCH  18  19
ENDBRANCH  15  18
ENDBRANCH   4  14
BRANCH   6  25
ATOM     25  O   UNL     1      -5.954   1.616  -0.350  0.00  0.00    +0.000 OA
ATOM     26  C   UNL     1      -5.945   3.045  -0.348  0.00  0.00    +0.000 C 
ENDBRANCH   6  25
TORSDOF 9
ENDMDL
MODEL      108
REMARK  Name = ZINC19689884
REMARK  8 active torsions:
REMARK  status: ('A' for Active; 'I' for Inactive)
REMARK    1  A    between atoms: C_4  and  C_7
REMARK    2  A    between atoms: N_14  and  C_15
REMARK    3  A    between atoms: C_15  and  C_16
REMARK    4  A    between atoms: C_16  and  C_17
REMARK    5  A    between atoms: C_17  and  C_18
REMARK    6  A    between atoms: C_18  and  C_19
REMARK    7  A    between atoms: C_19  and  C_20
REMARK    8  A    between atoms: C_20  and  N_21
REMARK                            x       y       z     vdW  Elec       q    Type
REMARK                         _______ _______ _______ _____ _____    ______ ____
ROOT
ATOM      1  C   UNL     1       0.002  -0.004   0.002  0.00  0.00    +0.000 A 
ATOM      2  C   UNL     1       1.250  -0.676  -0.124  0.00  0.00    +0.000 A 
ATOM      3  O   UNL     1       1.302  -1.889  -0.228  0.00  0.00    +0.000 OA
ATOM      4  N   UNL     1       2.377   0.072  -0.126  0.00  0.00    +0.000 NA
ATOM      5  C   UNL     1       2.264   1.425  -0.007  0.00  0.00    +0.000 A 
ATOM      6  N   UNL     1       1.076   1.994   0.107  0.00  0.00    +0.000 NA
ATOM      7  N   UNL     1      -0.013   1.312   0.112  0.00  0.00    +0.000 NA
ATOM      8  N   UNL     1       3.390   2.201  -0.007  0.00  0.00    +0.000 N 
ATOM      9  H   UNL     1       4.318   1.763  -0.096  0.00  0.00    +0.000 HD
ENDROOT
BRANCH   1  13
ATOM     10  C   UNL     1      -3.633  -2.205   0.024  0.00  0.00    +0.000 A 
ATOM     11  C   UNL     1      -2.541  -2.686  -0.677  0.00  0.00    +0.000 A 
ATOM     12  C   UNL     1      -1.358  -1.975  -0.688  0.00  0.00    +0.000 A 
ATOM     13  C   UNL     1      -1.265  -0.771   0.009  0.00  0.00    +0.000 A 
ATOM     14  C   UNL     1      -2.367  -0.295   0.719  0.00  0.00    +0.000 A 
ATOM     15  C   UNL     1      -3.546  -1.012   0.718  0.00  0.00    +0.000 A 
ENDBRANCH   1  13
BRANCH   8  16
ATOM     16  C   UNL     1       3.277   3.656   0.120  0.00  0.00    +0.000 C 
BRANCH  16  17
ATOM     17  C   UNL     1       4.673   4.281   0.093  0.00  0.00    +0.000 C 
BRANCH  17  18
ATOM     18  C   UNL     1       4.554   5.801   0.226  0.00  0.00    +0.000 C 
BRANCH  18  19
ATOM     19  C   UNL     1       5.951   6.426   0.198  0.00  0.00    +0.000 C 
BRANCH  19  20
ATOM     20  C   UNL     1       5.832   7.945   0.331  0.00  0.00    +0.000 C 
BRANCH  20  21
ATOM     21  C   UNL     1       7.228   8.570   0.303  0.00  0.00    +0.000 C 
BRANCH  21  22
ATOM     22  N   UNL     1       7.114  10.029   0.431  0.00  0.00    +0.000 N 
ATOM     23  H   UNL     1       6.653  10.262   1.321  0.00  0.00    +0.000 HD
ATOM     24  H   UNL     1       6.557  10.401  -0.352  0.00  0.00    +0.000 HD
ATOM     25  H   UNL     1       8.054  10.450   0.412  0.00  0.00    +0.000 HD
ENDBRANCH  21  22
ENDBRANCH  20  21
ENDBRANCH  19  20
ENDBRANCH  18  19
ENDBRANCH  17  18
ENDBRANCH  16  17
ENDBRANCH   8  16
TORSDOF 8
ENDMDL
MODEL      109
REMARK  Name = ZINC04552220
REMARK  10 active torsions:
REMARK  status: ('A' for Active; 'I' for Inactive)
REMARK    1  A    between atoms: C_1  and  C_2
REMARK    2  A    between atoms: C_2  and  C_3
REMARK    3  A    between atoms: C_3  and  C_4
REMARK    4  A    between atoms: C_4  and  N_5
REMARK    5  A    between atoms: N_5  and  C_6
REMARK    6  A    between atoms: N_5  and  C_12
REMARK    7  A    between atoms: C_6  and  C_7
REMARK    8  A    between atoms: C_7  and  C_8
REMARK    9  A    between atoms: C_8  and  S_9
REMARK   10  A    between atoms: C_15  and  N_18
REMARK                            x       y       z     vdW  Elec       q    Type
REMARK                         _______ _______ _______ _____ _____    ______ ____
ROOT
ATOM      1  N   UNL     1       1.233  -2.082  -0.021  0.00  0.00    +0.000 N 
ENDROOT
BRANCH   1   2
ATOM      2  C   UNL     1       1.214  -0.682  -0.013  0.00  0.00    +0.000 A 
ATOM      3  C   UNL     1       0.002  -0.004   0.002  0.00  0.00    +0.000 A 
ATOM      4  C   UNL     1      -0.017   1.377   0.010  0.00  0.00    +0.000 A 
ATOM      5  C   UNL     1       1.176   2.087   0.002  0.00  0.00    +0.000 A 
ATOM      6  C   UNL     1       2.388   1.409  -0.015  0.00  0.00    +0.000 A 
ATOM      7  C   UNL     1       2.407   0.029  -0.022  0.00  0.00    +0.000 A 
BRANCH   5   8
ATOM      8  N   UNL     1       1.157   3.487   0.010  0.00  0.00    +0.000 N 
ATOM      9  H   UNL     1       0.258   3.990   0.021  0.00  0.00    +0.000 HD
ATOM     10  H   UNL     1       2.042   4.014   0.004  0.00  0.00    +0.000 HD
ENDBRANCH   5   8
ENDBRANCH   1   2
BRANCH   1  11
ATOM     11  C   UNL     1       2.511  -2.797  -0.037  0.00  0.00    +0.000 C 
BRANCH  11  12
ATOM     12  C   UNL     1       2.970  -3.053   1.400  0.00  0.00    +0.000 C 
BRANCH  12  13
ATOM     13  C   UNL     1       4.306  -3.800   1.383  0.00  0.00    +0.000 C 
BRANCH  13  14
ATOM     14  S   UNL     1       4.850  -4.104   3.087  0.00  0.00    +0.000 S 
ATOM     15  O   UNL     1       5.186  -2.877   3.720  0.00  0.00    +0.000 OA
ATOM     16  O   UNL     1       3.980  -5.032   3.721  0.00  0.00    +0.000 OA
ATOM     17  O   UNL     1       6.173  -4.844   2.949  0.00  0.00    +0.000 OA
ENDBRANCH  13  14
ENDBRANCH  12  13
ENDBRANCH  11  12
ENDBRANCH   1  11
BRANCH   1  18
ATOM     18  C   UNL     1      -0.026  -2.832  -0.012  0.00  0.00    +0.000 C 
BRANCH  18  19
ATOM     19  C   UNL     1      -0.478  -3.085  -1.451  0.00  0.00    +0.000 C 
BRANCH  19  21
ATOM     20  C   UNL     1      -2.245  -4.122  -2.882  0.00  0.00    +0.000 C 
ATOM     21  C   UNL     1      -1.792  -3.868  -1.442  0.00  0.00    +0.000 C 
ENDBRANCH  19  21
ENDBRANCH  18  19
ENDBRANCH   1  18
TORSDOF 9
ENDMDL
MODEL      110
REMARK  Name = ZINC12664266
REMARK  14 active torsions:
REMARK  status: ('A' for Active; 'I' for Inactive)
REMARK    1  A    between atoms: C_4  and  N_21
REMARK    2  A    between atoms: C_5  and  C_7
REMARK    3  A    between atoms: C_7  and  O_9
REMARK    4  A    between atoms: O_9  and  C_10
REMARK    5  A    between atoms: C_10  and  C_11
REMARK    6  A    between atoms: C_11  and  C_12
REMARK    7  A    between atoms: C_11  and  O_20
REMARK    8  A    between atoms: C_12  and  C_13
REMARK    9  A    between atoms: C_12  and  O_19
REMARK   10  A    between atoms: C_13  and  C_14
REMARK   11  A    between atoms: C_13  and  O_18
REMARK   12  A    between atoms: C_14  and  C_15
REMARK   13  A    between atoms: C_14  and  O_17
REMARK   14  A    between atoms: C_15  and  O_16
REMARK                            x       y       z     vdW  Elec       q    Type
REMARK                         _______ _______ _______ _____ _____    ______ ____
ROOT
ATOM      1  C   UNL     1       2.573   2.809  -1.537  0.00  0.00    +0.000 C 
ENDROOT
BRANCH   1   2
ATOM      2  O   UNL     1       3.051   1.525  -1.134  0.00  0.00    +0.000 OA
ATOM      3  H   UNL     1       3.502   1.084  -1.898  0.00  0.00    +0.000 HD
ENDBRANCH   1   2
BRANCH   1   4
ATOM      4  C   UNL     1       1.877   3.489  -0.356  0.00  0.00    +0.000 C 
BRANCH   4   5
ATOM      5  O   UNL     1       0.710   2.746   0.000  0.00  0.00    +0.000 OA
ATOM      6  H   UNL     1       0.968   1.825   0.255  0.00  0.00    +0.000 HD
ENDBRANCH   4   5
BRANCH   4   7
ATOM      7  C   UNL     1       2.833   3.540   0.838  0.00  0.00    +0.000 C 
BRANCH   7   8
ATOM      8  O   UNL     1       4.000   4.283   0.482  0.00  0.00    +0.000 OA
ATOM      9  H   UNL     1       3.741   5.204   0.227  0.00  0.00    +0.000 HD
ENDBRANCH   7   8
BRANCH   7  10
ATOM     10  C   UNL     1       2.136   4.220   2.019  0.00  0.00    +0.000 C 
BRANCH  10  11
ATOM     11  O   UNL     1       0.969   3.477   2.375  0.00  0.00    +0.000 OA
ATOM     12  H   UNL     1       1.228   2.556   2.631  0.00  0.00    +0.000 HD
ENDBRANCH  10  11
BRANCH  10  13
ATOM     13  C   UNL     1       3.092   4.271   3.213  0.00  0.00    +0.000 C 
BRANCH  13  14
ATOM     14  O   UNL     1       2.485   5.007   4.277  0.00  0.00    +0.000 OA
ATOM     15  H   UNL     1       1.643   4.564   4.548  0.00  0.00    +0.000 HD
ENDBRANCH  13  14
ENDBRANCH  10  13
ENDBRANCH   7  10
ENDBRANCH   4   7
ENDBRANCH   1   4
BRANCH   1  16
ATOM     16  C   UNL     1       1.579   2.646  -2.689  0.00  0.00    +0.000 C 
BRANCH  16  17
ATOM     17  O   UNL     1       2.268   2.110  -3.850  0.00  0.00    +0.000 OA
BRANCH  17  18
ATOM     18  C   UNL     1       1.530   1.904  -4.958  0.00  0.00    +0.000 C 
ATOM     19  O   UNL     1       0.343   2.166  -4.955  0.00  0.00    +0.000 OA
BRANCH  18  24
ATOM     20  C   UNL     1       4.078   0.436  -7.286  0.00  0.00    +0.000 A 
ATOM     21  C   UNL     1       3.353   0.343  -8.464  0.00  0.00    +0.000 A 
ATOM     22  C   UNL     1       2.037   0.756  -8.508  0.00  0.00    +0.000 A 
ATOM     23  C   UNL     1       1.429   1.269  -7.368  0.00  0.00    +0.000 A 
ATOM     24  C   UNL     1       2.162   1.363  -6.174  0.00  0.00    +0.000 A 
ATOM     25  C   UNL     1       3.495   0.946  -6.147  0.00  0.00    +0.000 A 
BRANCH  23  26
ATOM     26  N   UNL     1       0.106   1.685  -7.410  0.00  0.00    +0.000 N 
ATOM     27  H   UNL     1      -0.427   1.614  -8.289  0.00  0.00    +0.000 HD
ATOM     28  H   UNL     1      -0.343   2.065  -6.565  0.00  0.00    +0.000 HD
ENDBRANCH  23  26
ENDBRANCH  18  24
ENDBRANCH  17  18
ENDBRANCH  16  17
ENDBRANCH   1  16
TORSDOF 14
ENDMDL
MODEL      111
REMARK  Name = ZINC06503099
REMARK  10 active torsions:
REMARK  status: ('A' for Active; 'I' for Inactive)
REMARK    1  A    between atoms: C_2  and  C_3
REMARK    2  A    between atoms: C_2  and  N_22
REMARK    3  A    between atoms: C_3  and  C_4
REMARK    4  A    between atoms: C_3  and  C_6
REMARK    5  A    between atoms: C_6  and  C_8
REMARK    6  A    between atoms: C_8  and  O_9
REMARK    7  A    between atoms: O_9  and  C_10
REMARK    8  A    between atoms: C_10  and  C_12
REMARK    9  A    between atoms: C_12  and  N_13
REMARK   10  A    between atoms: C_14  and  C_16
REMARK                            x       y       z     vdW  Elec       q    Type
REMARK                         _______ _______ _______ _____ _____    ______ ____
ROOT
ATOM      1  C   UNL     1       3.630   1.576  -0.024  0.00  0.00    +0.000 C 
ATOM      2  O   UNL     1       3.772   2.776  -0.019  0.00  0.00    +0.000 OA
ENDROOT
BRANCH   1   3
ATOM      3  C   UNL     1       4.837   0.674  -0.041  0.00  0.00    +0.000 C 
BRANCH   3   4
ATOM      4  N   UNL     1       6.055   1.489  -0.048  0.00  0.00    +0.000 N 
ATOM      5  C   UNL     1       7.264   0.893  -0.062  0.00  0.00    +0.000 C 
ATOM      6  O   UNL     1       7.344  -0.319  -0.070  0.00  0.00    +0.000 OA
ATOM      7  H   UNL     1       5.987   2.517  -0.042  0.00  0.00    +0.000 HD
BRANCH   5   8
ATOM      8  C   UNL     1       8.493   1.716  -0.070  0.00  0.00    +0.000 A 
ATOM      9  C   UNL     1       8.404   3.108  -0.067  0.00  0.00    +0.000 A 
ATOM     10  C   UNL     1       9.555   3.870  -0.069  0.00  0.00    +0.000 A 
ATOM     11  C   UNL     1      10.794   3.255  -0.084  0.00  0.00    +0.000 A 
ATOM     12  C   UNL     1      10.889   1.875  -0.092  0.00  0.00    +0.000 A 
ATOM     13  C   UNL     1       9.746   1.102  -0.085  0.00  0.00    +0.000 A 
ENDBRANCH   5   8
ENDBRANCH   3   4
ENDBRANCH   1   3
BRANCH   1  14
ATOM     14  O   UNL     1       2.397   1.046  -0.015  0.00  0.00    +0.000 OA
BRANCH  14  15
ATOM     15  C   UNL     1       1.280   1.975   0.000  0.00  0.00    +0.000 C 
BRANCH  15  16
ATOM     16  C   UNL     1      -0.014   1.203   0.009  0.00  0.00    +0.000 C 
ATOM     17  O   UNL     1       0.002  -0.004   0.002  0.00  0.00    +0.000 OA
BRANCH  16  18
ATOM     18  C   UNL     1      -1.329   1.939   0.019  0.00  0.00    +0.000 C 
BRANCH  18  19
ATOM     19  C   UNL     1      -1.764   2.186  -1.366  0.00  0.00    +0.000 C 
ATOM     20  N   UNL     1      -2.100   2.377  -2.434  0.00  0.00    +0.000 NA
ENDBRANCH  18  19
BRANCH  18  22
ATOM     21  C   UNL     1      -2.963   1.577   1.808  0.00  0.00    +0.000 C 
ATOM     22  C   UNL     1      -2.365   1.107   0.730  0.00  0.00    +0.000 C 
BRANCH  22  23
ATOM     23  N   UNL     1      -2.492  -0.272   0.407  0.00  0.00    +0.000 N 
ATOM     24  H   UNL     1      -3.045  -0.900   1.008  0.00  0.00    +0.000 HD
ATOM     25  H   UNL     1      -2.028  -0.644  -0.433  0.00  0.00    +0.000 HD
ENDBRANCH  22  23
ENDBRANCH  18  22
ENDBRANCH  16  18
ENDBRANCH  15  16
ENDBRANCH  14  15
ENDBRANCH   1  14
TORSDOF 10
ENDMDL
MODEL      112
REMARK  Name = ZINC31870841
REMARK  10 active torsions:
REMARK  status: ('A' for Active; 'I' for Inactive)
REMARK    1  A    between atoms: C_1  and  C_2
REMARK    2  A    between atoms: C_2  and  N_3
REMARK    3  A    between atoms: N_3  and  C_4
REMARK    4  A    between atoms: N_3  and  C_6
REMARK    5  A    between atoms: C_4  and  C_5
REMARK    6  A    between atoms: C_6  and  C_7
REMARK    7  A    between atoms: C_7  and  O_8
REMARK    8  A    between atoms: O_8  and  C_9
REMARK    9  A    between atoms: C_9  and  C_11
REMARK   10  A    between atoms: C_12  and  N_19
REMARK                            x       y       z     vdW  Elec       q    Type
REMARK                         _______ _______ _______ _____ _____    ______ ____
ROOT
ATOM      1  C   UNL     1      -1.711   1.545   4.408  0.00  0.00    +0.000 A 
ATOM      2  C   UNL     1      -0.993   1.192   5.517  0.00  0.00    +0.000 A 
ATOM      3  C   UNL     1      -1.707   1.083   6.805  0.00  0.00    +0.000 A 
ATOM      4  O   UNL     1      -1.111   0.772   7.819  0.00  0.00    +0.000 OA
ATOM      5  N   UNL     1      -3.032   1.335   6.838  0.00  0.00    +0.000 N 
ATOM      6  C   UNL     1      -3.691   1.678   5.718  0.00  0.00    +0.000 A 
ATOM      7  O   UNL     1      -4.886   1.898   5.782  0.00  0.00    +0.000 OA
ATOM      8  N   UNL     1      -3.071   1.791   4.533  0.00  0.00    +0.000 NA
ATOM      9  H   UNL     1      -3.543   1.262   7.729  0.00  0.00    +0.000 HD
ENDROOT
BRANCH   2  10
ATOM     10  N   UNL     1       0.368   0.943   5.434  0.00  0.00    +0.000 N 
ATOM     11  H   UNL     1       0.842   1.026   4.524  0.00  0.00    +0.000 HD
ATOM     12  H   UNL     1       0.902   0.678   6.274  0.00  0.00    +0.000 HD
ENDBRANCH   2  10
BRANCH   1  13
ATOM     13  C   UNL     1      -1.048   1.668   3.100  0.00  0.00    +0.000 C 
ATOM     14  O   UNL     1       0.123   1.366   2.981  0.00  0.00    +0.000 OA
BRANCH  13  15
ATOM     15  O   UNL     1      -1.741   2.115   2.033  0.00  0.00    +0.000 OA
BRANCH  15  16
ATOM     16  C   UNL     1      -1.024   2.210   0.774  0.00  0.00    +0.000 C 
BRANCH  16  17
ATOM     17  C   UNL     1      -1.931   2.841  -0.284  0.00  0.00    +0.000 C 
BRANCH  17  18
ATOM     18  N   UNL     1      -2.241   4.225   0.098  0.00  0.00    +0.000 N 
ATOM     19  H   UNL     1      -2.435   4.238   1.110  0.00  0.00    +0.000 HD
BRANCH  18  20
ATOM     20  C   UNL     1      -3.442   4.707  -0.598  0.00  0.00    +0.000 C 
ATOM     21  C   UNL     1      -4.686   4.095   0.049  0.00  0.00    +0.000 C 
ENDBRANCH  18  20
BRANCH  18  23
ATOM     22  C   UNL     1      -1.359   6.477   0.479  0.00  0.00    +0.000 C 
ATOM     23  C   UNL     1      -1.096   5.109  -0.154  0.00  0.00    +0.000 C 
ENDBRANCH  18  23
ENDBRANCH  17  18
ENDBRANCH  16  17
ENDBRANCH  15  16
ENDBRANCH  13  15
ENDBRANCH   1  13
TORSDOF 8
ENDMDL
MODEL      113
REMARK  Name = ZINC05732075
REMARK  13 active torsions:
REMARK  status: ('A' for Active; 'I' for Inactive)
REMARK    1  A    between atoms: C_1  and  O_2
REMARK    2  A    between atoms: O_2  and  C_3
REMARK    3  A    between atoms: C_3  and  C_4
REMARK    4  A    between atoms: C_3  and  C_8
REMARK    5  A    between atoms: C_4  and  C_5
REMARK    6  A    between atoms: C_4  and  O_7
REMARK    7  A    between atoms: C_5  and  O_6
REMARK    8  A    between atoms: C_8  and  C_9
REMARK    9  A    between atoms: C_8  and  O_21
REMARK   10  A    between atoms: C_9  and  C_10
REMARK   11  A    between atoms: C_9  and  O_20
REMARK   12  A    between atoms: N_12  and  N_13
REMARK   13  A    between atoms: N_13  and  C_14
REMARK                            x       y       z     vdW  Elec       q    Type
REMARK                         _______ _______ _______ _____ _____    ______ ____
ROOT
ATOM      1  C   UNL     1      -2.508   1.911  -2.662  0.00  0.00    +0.000 C 
ENDROOT
BRANCH   1   2
ATOM      2  C   UNL     1      -3.859   1.571  -3.238  0.00  0.00    +0.000 C 
ATOM      3  O   UNL     1      -4.695   2.439  -3.375  0.00  0.00    +0.000 OA
ATOM      4  N   UNL     1      -4.137   0.303  -3.600  0.00  0.00    +0.000 N 
ATOM      5  H   UNL     1      -3.427  -0.433  -3.484  0.00  0.00    +0.000 HD
BRANCH   4   6
ATOM      6  N   UNL     1      -5.393  -0.013  -4.136  0.00  0.00    +0.000 N 
ATOM      7  H   UNL     1      -6.103   0.724  -4.253  0.00  0.00    +0.000 HD
BRANCH   6   8
ATOM      8  C   UNL     1      -5.681  -1.327  -4.511  0.00  0.00    +0.000 A 
ATOM      9  C   UNL     1      -4.723  -2.320  -4.360  0.00  0.00    +0.000 A 
ATOM     10  C   UNL     1      -5.013  -3.620  -4.727  0.00  0.00    +0.000 A 
ATOM     11  C   UNL     1      -6.253  -3.930  -5.255  0.00  0.00    +0.000 A 
ATOM     12  C   UNL     1      -7.207  -2.942  -5.413  0.00  0.00    +0.000 A 
ATOM     13  C   UNL     1      -6.926  -1.642  -5.043  0.00  0.00    +0.000 A 
ENDBRANCH   6   8
ENDBRANCH   4   6
ENDBRANCH   1   2
BRANCH   1  14
ATOM     14  O   UNL     1      -2.415   3.324  -2.467  0.00  0.00    +0.000 OA
ATOM     15  H   UNL     1      -1.528   3.548  -2.089  0.00  0.00    +0.000 HD
ENDBRANCH   1  14
BRANCH   1  16
ATOM     16  C   UNL     1      -2.333   1.199  -1.319  0.00  0.00    +0.000 C 
BRANCH  16  17
ATOM     17  O   UNL     1      -2.299  -0.214  -1.531  0.00  0.00    +0.000 OA
ATOM     18  H   UNL     1      -2.186  -0.676  -0.662  0.00  0.00    +0.000 HD
ENDBRANCH  16  17
BRANCH  16  19
ATOM     19  C   UNL     1      -1.022   1.649  -0.671  0.00  0.00    +0.000 C 
BRANCH  19  21
ATOM     20  C   UNL     1      -1.505   1.727   1.676  0.00  0.00    +0.000 C 
ATOM     21  O   UNL     1      -0.880   1.018   0.604  0.00  0.00    +0.000 OA
ENDBRANCH  19  21
BRANCH  19  22
ATOM     22  C   UNL     1       0.153   1.255  -1.568  0.00  0.00    +0.000 C 
BRANCH  22  23
ATOM     23  O   UNL     1       0.195  -0.168  -1.701  0.00  0.00    +0.000 OA
ATOM     24  H   UNL     1      -0.650  -0.487  -2.105  0.00  0.00    +0.000 HD
ENDBRANCH  22  23
BRANCH  22  25
ATOM     25  C   UNL     1       1.460   1.748  -0.944  0.00  0.00    +0.000 C 
BRANCH  25  26
ATOM     26  O   UNL     1       2.544   1.483  -1.836  0.00  0.00    +0.000 OA
ATOM     27  H   UNL     1       2.389   1.955  -2.693  0.00  0.00    +0.000 HD
ENDBRANCH  25  26
ENDBRANCH  22  25
ENDBRANCH  19  22
ENDBRANCH  16  19
ENDBRANCH   1  16
TORSDOF 12
ENDMDL
MODEL      114
REMARK  Name = ZINC05004207
REMARK  7 active torsions:
REMARK  status: ('A' for Active; 'I' for Inactive)
REMARK    1  A    between atoms: C_1  and  C_2
REMARK    2  A    between atoms: C_2  and  C_3
REMARK    3  A    between atoms: C_3  and  C_4
REMARK    4  A    between atoms: C_4  and  N_5
REMARK    5  A    between atoms: C_6  and  C_7
REMARK    6  A    between atoms: C_10  and  S_13
REMARK    7  A    between atoms: S_13  and  N_16
REMARK                            x       y       z     vdW  Elec       q    Type
REMARK                         _______ _______ _______ _____ _____    ______ ____
ROOT
ATOM      1  C   UNL     1      -2.249   2.856   3.489  0.00  0.00    +0.000 A 
ATOM      2  C   UNL     1      -2.485   1.485   3.587  0.00  0.00    +0.000 A 
ATOM      3  C   UNL     1      -1.923   0.624   2.666  0.00  0.00    +0.000 A 
ATOM      4  C   UNL     1      -1.128   1.119   1.648  0.00  0.00    +0.000 A 
ATOM      5  C   UNL     1      -0.887   2.477   1.549  0.00  0.00    +0.000 A 
ATOM      6  C   UNL     1      -1.447   3.349   2.460  0.00  0.00    +0.000 A 
ENDROOT
BRANCH   1   8
ATOM      7  N   UNL     1      -2.616   5.139   4.374  0.00  0.00    +0.000 N 
ATOM      8  C   UNL     1      -2.850   3.785   4.473  0.00  0.00    +0.000 C 
ATOM      9  N   UNL     1      -3.601   3.252   5.425  0.00  0.00    +0.000 N 
ATOM     10  H   UNL     1      -2.023   5.505   3.615  0.00  0.00    +0.000 HD
ATOM     11  H   UNL     1      -4.024   3.888   6.116  0.00  0.00    +0.000 HD
ATOM     12  H   UNL     1      -3.762   2.236   5.478  0.00  0.00    +0.000 HD
BRANCH   7  13
ATOM     13  C   UNL     1      -3.209   6.059   5.348  0.00  0.00    +0.000 C 
BRANCH  13  14
ATOM     14  C   UNL     1      -2.796   7.493   5.014  0.00  0.00    +0.000 C 
BRANCH  14  16
ATOM     15  C   UNL     1      -3.002   9.888   5.696  0.00  0.00    +0.000 C 
ATOM     16  C   UNL     1      -3.416   8.453   6.031  0.00  0.00    +0.000 C 
ENDBRANCH  14  16
ENDBRANCH  13  14
ENDBRANCH   7  13
ENDBRANCH   1   8
BRANCH   4  17
ATOM     17  S   UNL     1      -0.414   0.013   0.476  0.00  0.00    +0.000 S 
ATOM     18  O   UNL     1      -0.341  -1.257   1.109  0.00  0.00    +0.000 OA
ATOM     19  O   UNL     1       0.730   0.667  -0.055  0.00  0.00    +0.000 OA
BRANCH  17  20
ATOM     20  N   UNL     1      -1.493  -0.141  -0.771  0.00  0.00    +0.000 N 
ATOM     21  C   UNL     1      -1.791   0.945  -1.560  0.00  0.00    +0.000 C 
ATOM     22  N   UNL     1      -2.686   0.817  -2.596  0.00  0.00    +0.000 N 
ATOM     23  N   UNL     1      -1.182   2.086  -1.271  0.00  0.00    +0.000 NA
ATOM     24  H   UNL     1      -1.940  -1.050  -0.956  0.00  0.00    +0.000 HD
ATOM     25  H   UNL     1      -3.133  -0.093  -2.781  0.00  0.00    +0.000 HD
ATOM     26  H   UNL     1      -2.909   1.630  -3.187  0.00  0.00    +0.000 HD
ATOM     27  H   UNL     1      -0.513   2.168  -0.492  0.00  0.00    +0.000 HD
ENDBRANCH  17  20
ENDBRANCH   4  17
TORSDOF 6
ENDMDL
MODEL      115
REMARK  Name = ZINC05258737
REMARK  9 active torsions:
REMARK  status: ('A' for Active; 'I' for Inactive)
REMARK    1  A    between atoms: C_1  and  C_2
REMARK    2  A    between atoms: C_2  and  C_3
REMARK    3  A    between atoms: C_3  and  C_4
REMARK    4  A    between atoms: C_4  and  N_20
REMARK    5  A    between atoms: CA_5  and  C_6
REMARK    6  A    between atoms: CA_5  and  C_18
REMARK    7  A    between atoms: CA_5  and  N_20
REMARK    8  A    between atoms: C_6  and  C_7
REMARK    9  A    between atoms: N_9  and  C_10
REMARK                            x       y       z     vdW  Elec       q    Type
REMARK                         _______ _______ _______ _____ _____    ______ ____
ROOT
ATOM      1  C   UNL     1      -2.287   1.493  -0.784  0.00  0.00    +0.000 C 
ENDROOT
BRANCH   1   2
ATOM      2  C   UNL     1      -2.564   2.421   0.371  0.00  0.00    +0.000 C 
ATOM      3  O   UNL     1      -1.661   3.062   0.864  0.00  0.00    +0.000 OA
ATOM      4  N   UNL     1      -3.817   2.538   0.856  0.00  0.00    +0.000 N 
ATOM      5  H   UNL     1      -4.595   2.046   0.395  0.00  0.00    +0.000 HD
BRANCH   4   6
ATOM      6  C   UNL     1      -4.059   3.327   1.988  0.00  0.00    +0.000 A 
ATOM      7  C   UNL     1      -3.321   4.484   2.199  0.00  0.00    +0.000 A 
ATOM      8  C   UNL     1      -3.561   5.261   3.316  0.00  0.00    +0.000 A 
ATOM      9  C   UNL     1      -4.537   4.888   4.225  0.00  0.00    +0.000 A 
ATOM     10  C   UNL     1      -5.274   3.734   4.019  0.00  0.00    +0.000 A 
ATOM     11  C   UNL     1      -5.041   2.956   2.899  0.00  0.00    +0.000 A 
ATOM     12  F   UNL     1      -5.765   1.833   2.693  0.00  0.00    +0.000 F 
ATOM     13  F   UNL     1      -4.769   5.650   5.316  0.00  0.00    +0.000 F 
ENDBRANCH   4   6
ENDBRANCH   1   2
BRANCH   1  14
ATOM     14  CA  UNL     1      -0.799   1.548  -1.136  0.00  0.00    +0.000 C 
BRANCH  14  15
ATOM     15  N   UNL     1      -0.015   1.011  -0.008  0.00  0.00    +0.000 N 
ATOM     16  H1  UNL     1       0.032  -0.015  -0.083  0.00  0.00    +0.000 HD
ATOM     17  H2  UNL     1      -0.476   1.264   0.878  0.00  0.00    +0.000 HD
BRANCH  15  18
ATOM     18  C   UNL     1       1.352   1.566  -0.025  0.00  0.00    +0.000 C 
BRANCH  18  19
ATOM     19  C   UNL     1       2.140   0.993   1.155  0.00  0.00    +0.000 C 
BRANCH  19  21
ATOM     20  C   UNL     1       4.348   0.990   2.324  0.00  0.00    +0.000 C 
ATOM     21  C   UNL     1       3.560   1.563   1.145  0.00  0.00    +0.000 C 
ENDBRANCH  19  21
ENDBRANCH  18  19
ENDBRANCH  15  18
ENDBRANCH  14  15
BRANCH  14  22
ATOM     22  C   UNL     1      -0.543   0.716  -2.367  0.00  0.00    +0.000 C 
ATOM     23  O   UNL     1       0.217  -0.221  -2.315  0.00  0.00    +0.000 OA
ATOM     24  OXT UNL     1      -1.161   1.017  -3.520  0.00  0.00    +0.000 OA
ENDBRANCH  14  22
ENDBRANCH   1  14
TORSDOF 8
ENDMDL
MODEL      116
REMARK  Name = ZINC17002242
REMARK  9 active torsions:
REMARK  status: ('A' for Active; 'I' for Inactive)
REMARK    1  A    between atoms: C_1  and  N_17
REMARK    2  A    between atoms: C_2  and  N_17
REMARK    3  A    between atoms: C_3  and  C_4
REMARK    4  A    between atoms: C_3  and  N_17
REMARK    5  A    between atoms: C_4  and  C_5
REMARK    6  A    between atoms: C_5  and  N_6
REMARK    7  A    between atoms: N_6  and  N_7
REMARK    8  A    between atoms: N_8  and  C_9
REMARK    9  A    between atoms: C_10  and  C_14
REMARK                            x       y       z     vdW  Elec       q    Type
REMARK                         _______ _______ _______ _____ _____    ______ ____
ROOT
ATOM      1  N   UNL     1       0.723   5.396   0.024  0.00  0.00    +0.000 NA
ATOM      2  N   UNL     1       1.321   4.253   0.012  0.00  0.00    +0.000 NA
ENDROOT
BRANCH   2   3
ATOM      3  C   UNL     1       0.589   3.099   0.013  0.00  0.00    +0.000 A 
ATOM      4  C   UNL     1       1.092   1.801   0.001  0.00  0.00    +0.000 A 
ATOM      5  N   UNL     1      -0.011   0.966   0.007  0.00  0.00    +0.000 N 
ATOM      6  C   UNL     1      -1.106   1.748   0.016  0.00  0.00    +0.000 A 
ATOM      7  N   UNL     1      -0.751   3.005   0.025  0.00  0.00    +0.000 NA
ATOM      8  H   UNL     1       0.003  -0.064   0.006  0.00  0.00    +0.000 HD
BRANCH   4   9
ATOM      9  C   UNL     1       2.499   1.402  -0.015  0.00  0.00    +0.000 C 
ATOM     10  O   UNL     1       3.372   2.250  -0.019  0.00  0.00    +0.000 OA
ATOM     11  N   UNL     1       2.829   0.095  -0.025  0.00  0.00    +0.000 N 
ATOM     12  H   UNL     1       2.090  -0.622  -0.021  0.00  0.00    +0.000 HD
ATOM     13  H   UNL     1       3.819  -0.186  -0.036  0.00  0.00    +0.000 HD
ENDBRANCH   4   9
ENDBRANCH   2   3
BRANCH   1  14
ATOM     14  N   UNL     1       1.474   6.579   0.023  0.00  0.00    +0.000 N 
ATOM     15  H   UNL     1       2.503   6.536   0.012  0.00  0.00    +0.000 HD
BRANCH  14  16
ATOM     16  C   UNL     1       0.795   7.878   0.036  0.00  0.00    +0.000 C 
BRANCH  16  17
ATOM     17  C   UNL     1       1.837   8.998   0.032  0.00  0.00    +0.000 C 
BRANCH  17  18
ATOM     18  C   UNL     1       1.128  10.354   0.046  0.00  0.00    +0.000 C 
BRANCH  18  21
ATOM     19  C   UNL     1       2.882  11.442  -1.219  0.00  0.00    +0.000 C 
ATOM     20  C   UNL     1       1.500  12.733   0.293  0.00  0.00    +0.000 C 
ATOM     21  N   UNL     1       2.147  11.424   0.063  0.00  0.00    +0.000 N 
ATOM     22  H   UNL     1       2.812  11.241   0.828  0.00  0.00    +0.000 HD
ENDBRANCH  18  21
ENDBRANCH  17  18
ENDBRANCH  16  17
ENDBRANCH  14  16
ENDBRANCH   1  14
TORSDOF 7
ENDMDL
MODEL      117
REMARK  Name = ZINC06495501
REMARK  8 active torsions:
REMARK  status: ('A' for Active; 'I' for Inactive)
REMARK    1  A    between atoms: C_3  and  C_15
REMARK    2  A    between atoms: C_6  and  C_7
REMARK    3  A    between atoms: N_9  and  C_10
REMARK    4  A    between atoms: C_10  and  C_11
REMARK    5  A    between atoms: C_11  and  N_18
REMARK    6  A    between atoms: C_12  and  C_13
REMARK    7  A    between atoms: C_12  and  N_18
REMARK    8  A    between atoms: C_13  and  O_14
REMARK                            x       y       z     vdW  Elec       q    Type
REMARK                         _______ _______ _______ _____ _____    ______ ____
ROOT
ATOM      1  C   UNL     1      -4.928  -2.829   0.035  0.00  0.00    +0.000 C 
ATOM      2  O   UNL     1      -4.963  -4.045   0.030  0.00  0.00    +0.000 OA
ATOM      3  N   UNL     1      -6.075  -2.122   0.051  0.00  0.00    +0.000 N 
ATOM      4  H   UNL     1      -6.045  -1.092   0.055  0.00  0.00    +0.000 HD
ENDROOT
BRANCH   1  10
ATOM      5  C   UNL     1      -2.429  -2.854   0.010  0.00  0.00    +0.000 A 
ATOM      6  C   UNL     1      -1.238  -2.155  -0.003  0.00  0.00    +0.000 A 
ATOM      7  C   UNL     1      -1.266  -0.760   0.010  0.00  0.00    +0.000 A 
ATOM      8  N   UNL     1      -2.422  -0.102   0.025  0.00  0.00    +0.000 NA
ATOM      9  C   UNL     1      -3.576  -0.732   0.032  0.00  0.00    +0.000 A 
ATOM     10  C   UNL     1      -3.627  -2.128   0.026  0.00  0.00    +0.000 A 
BRANCH   7  11
ATOM     11  C   UNL     1       0.002  -0.004   0.002  0.00  0.00    +0.000 C 
ATOM     12  N   UNL     1      -0.015   1.289   0.009  0.00  0.00    +0.000 NA
ATOM     13  O   UNL     1       1.201   2.014   0.001  0.00  0.00    +0.000 OA
ENDBRANCH   7  11
ENDBRANCH   1  10
BRANCH   3  14
ATOM     14  C   UNL     1      -7.364  -2.817   0.060  0.00  0.00    +0.000 C 
BRANCH  14  15
ATOM     15  C   UNL     1      -8.498  -1.790   0.077  0.00  0.00    +0.000 C 
BRANCH  15  16
ATOM     16  N   UNL     1      -9.792  -2.497   0.086  0.00  0.00    +0.000 N 
ATOM     17  H   UNL     1      -9.865  -3.087  -0.755  0.00  0.00    +0.000 HD
ATOM     18  H   UNL     1      -9.849  -3.096   0.923  0.00  0.00    +0.000 HD
BRANCH  16  19
ATOM     19  C   UNL     1     -10.905  -1.530   0.102  0.00  0.00    +0.000 C 
BRANCH  19  20
ATOM     20  C   UNL     1     -12.232  -2.291   0.112  0.00  0.00    +0.000 C 
BRANCH  20  21
ATOM     21  O   UNL     1     -12.349  -3.028   1.331  0.00  0.00    +0.000 OA
ATOM     22  H   UNL     1     -12.322  -2.404   2.099  0.00  0.00    +0.000 HD
ENDBRANCH  20  21
ENDBRANCH  19  20
ENDBRANCH  16  19
ENDBRANCH  15  16
ENDBRANCH  14  15
ENDBRANCH   3  14
TORSDOF 8
ENDMDL
MODEL      118
REMARK  Name = ZINC24331310
REMARK  8 active torsions:
REMARK  status: ('A' for Active; 'I' for Inactive)
REMARK    1  A    between atoms: C_3  and  C_6
REMARK    2  A    between atoms: N_8  and  C_9
REMARK    3  A    between atoms: C_9  and  C_10
REMARK    4  A    between atoms: C_10  and  C_11
REMARK    5  A    between atoms: C_11  and  C_12
REMARK    6  A    between atoms: C_12  and  O_14
REMARK    7  A    between atoms: O_14  and  C_15
REMARK    8  A    between atoms: C_15  and  C_16
REMARK                            x       y       z     vdW  Elec       q    Type
REMARK                         _______ _______ _______ _____ _____    ______ ____
ROOT
ATOM      1  C   UNL     1      -2.826  -2.585   0.015  0.00  0.00    +0.000 C 
ATOM      2  O   UNL     1      -3.755  -1.812   0.028  0.00  0.00    +0.000 OA
ENDROOT
BRANCH   1   3
ATOM      3  O   UNL     1      -3.054  -3.908   0.010  0.00  0.00    +0.000 OA
BRANCH   3   4
ATOM      4  C   UNL     1      -4.440  -4.339   0.021  0.00  0.00    +0.000 C 
BRANCH   4   5
ATOM      5  C   UNL     1      -4.499  -5.844   0.014  0.00  0.00    +0.000 C 
ATOM      6  O   UNL     1      -3.473  -6.491   0.000  0.00  0.00    +0.000 OA
ATOM      7  N   UNL     1      -5.691  -6.473   0.022  0.00  0.00    +0.000 N 
ATOM      8  C   UNL     1      -5.744  -7.819   0.015  0.00  0.00    +0.000 C 
ATOM      9  O   UNL     1      -4.715  -8.467   0.002  0.00  0.00    +0.000 OA
ATOM     10  N   UNL     1      -6.936  -8.447   0.023  0.00  0.00    +0.000 N 
ATOM     11  H   UNL     1      -6.562  -5.923   0.033  0.00  0.00    +0.000 HD
ATOM     12  H   UNL     1      -7.807  -7.898   0.034  0.00  0.00    +0.000 HD
ATOM     13  H   UNL     1      -6.976  -9.477   0.018  0.00  0.00    +0.000 HD
ENDBRANCH   4   5
ENDBRANCH   3   4
ENDBRANCH   1   3
BRANCH   1  14
ATOM     14  C   UNL     1      -1.413  -2.063   0.004  0.00  0.00    +0.000 C 
BRANCH  14  15
ATOM     15  C   UNL     1      -1.433  -0.534   0.013  0.00  0.00    +0.000 C 
BRANCH  15  16
ATOM     16  C   UNL     1       0.002  -0.004   0.002  0.00  0.00    +0.000 C 
BRANCH  16  19
ATOM     17  C   UNL     1       1.140   2.151   0.003  0.00  0.00    +0.000 C 
ATOM     18  O   UNL     1       2.202   1.556  -0.011  0.00  0.00    +0.000 OA
ATOM     19  N   UNL     1      -0.018   1.461   0.010  0.00  0.00    +0.000 N 
ATOM     20  H   UNL     1      -0.917   1.964   0.021  0.00  0.00    +0.000 HD
BRANCH  17  23
ATOM     21  C   UNL     1       1.733   5.753   0.016  0.00  0.00    +0.000 A 
ATOM     22  C   UNL     1       2.214   4.434   0.005  0.00  0.00    +0.000 A 
ATOM     23  C   UNL     1       1.120   3.617   0.011  0.00  0.00    +0.000 A 
ATOM     24  O   UNL     1       0.018   4.395   0.020  0.00  0.00    +0.000 OA
ATOM     25  C   UNL     1       0.383   5.683   0.028  0.00  0.00    +0.000 A 
ENDBRANCH  17  23
ENDBRANCH  16  19
ENDBRANCH  15  16
ENDBRANCH  14  15
ENDBRANCH   1  14
TORSDOF 8
ENDMDL
MODEL      119
REMARK  Name = ZINC16848399
REMARK  7 active torsions:
REMARK  status: ('A' for Active; 'I' for Inactive)
REMARK    1  A    between atoms: C_1  and  C_2
REMARK    2  A    between atoms: C_2  and  C_3
REMARK    3  A    between atoms: C_3  and  N_4
REMARK    4  A    between atoms: N_11  and  N_12
REMARK    5  A    between atoms: N_17  and  C_18
REMARK    6  A    between atoms: C_18  and  C_19
REMARK    7  A    between atoms: C_19  and  C_20
REMARK                            x       y       z     vdW  Elec       q    Type
REMARK                         _______ _______ _______ _____ _____    ______ ____
ROOT
ATOM      1  N   UNL     1      -0.698   1.558   1.213  0.00  0.00    +0.000 N 
ATOM      2  C   UNL     1      -0.210   1.225   2.460  0.00  0.00    +0.000 A 
ATOM      3  N   UNL     1      -0.830   1.658   3.554  0.00  0.00    +0.000 NA
ATOM      4  C   UNL     1      -0.362   1.333   4.755  0.00  0.00    +0.000 A 
ATOM      5  N   UNL     1       0.730   0.583   4.863  0.00  0.00    +0.000 NA
ATOM      6  C   UNL     1       1.352   0.153   3.769  0.00  0.00    +0.000 A 
ATOM      7  N   UNL     1       0.882   0.474   2.568  0.00  0.00    +0.000 NA
ATOM      8  N   UNL     1       2.486  -0.626   3.881  0.00  0.00    +0.000 N 
ATOM      9  N   UNL     1      -1.008   1.778   5.891  0.00  0.00    +0.000 N 
ATOM     10  H   UNL     1      -1.545   2.140   1.130  0.00  0.00    +0.000 HD
ATOM     11  H   UNL     1       2.967  -0.958   3.033  0.00  0.00    +0.000 HD
ATOM     12  H   UNL     1      -1.854   2.360   5.808  0.00  0.00    +0.000 HD
ENDROOT
BRANCH   8  13
ATOM     13  N   UNL     1       2.981  -0.964   5.147  0.00  0.00    +0.000 N 
ATOM     14  C   UNL     1       2.467  -0.601   6.347  0.00  0.00    +0.000 A 
ATOM     15  N   UNL     1       3.227  -1.127   7.269  0.00  0.00    +0.000 NA
ATOM     16  N   UNL     1       4.183  -1.786   6.718  0.00  0.00    +0.000 NA
ATOM     17  C   UNL     1       4.075  -1.716   5.420  0.00  0.00    +0.000 A 
ENDBRANCH   8  13
BRANCH   1  18
ATOM     18  C   UNL     1      -0.013   1.086   0.008  0.00  0.00    +0.000 C 
BRANCH  18  20
ATOM     19  C   UNL     1      -0.037   1.099  -2.490  0.00  0.00    +0.000 C 
ATOM     20  C   UNL     1      -0.753   1.593  -1.232  0.00  0.00    +0.000 C 
ENDBRANCH  18  20
ENDBRANCH   1  18
BRANCH   9  21
ATOM     21  C   UNL     1      -0.489   1.425   7.215  0.00  0.00    +0.000 C 
BRANCH  21  22
ATOM     22  C   UNL     1      -1.382   2.041   8.293  0.00  0.00    +0.000 C 
ATOM     23  C   UNL     1      -0.841   1.672   9.676  0.00  0.00    +0.000 C 
ENDBRANCH  21  22
ENDBRANCH   9  21
TORSDOF 5
ENDMDL
MODEL      120
REMARK  Name = ZINC06934276
REMARK  10 active torsions:
REMARK  status: ('A' for Active; 'I' for Inactive)
REMARK    1  A    between atoms: CD1_1  and  CG1_2
REMARK    2  A    between atoms: CG1_2  and  CB_3
REMARK    3  A    between atoms: CB_3  and  CG2_4
REMARK    4  A    between atoms: CB_3  and  CA_5
REMARK    5  A    between atoms: CA_5  and  C_6
REMARK    6  A    between atoms: CA_5  and  N_8
REMARK    7  A    between atoms: N_11  and  C_12
REMARK    8  A    between atoms: C_12  and  C_13
REMARK    9  A    between atoms: C_13  and  C_14
REMARK   10  A    between atoms: C_14  and  N_21
REMARK                            x       y       z     vdW  Elec       q    Type
REMARK                         _______ _______ _______ _____ _____    ______ ____
ROOT
ATOM      1  N   ILE A   1      -0.011   0.966   0.007  0.00  0.00    +0.000 N 
ATOM      2  C   UNK A   0       1.147   1.655   0.000  0.00  0.00    +0.000 C 
ATOM      3  O   UNK A   0       1.130   2.871   0.007  0.00  0.00    +0.000 OA
ATOM      4  N   UNK A   0       2.323   0.998  -0.015  0.00  0.00    +0.000 N 
ATOM      5  H   ILE A   1       0.003  -0.064   0.006  0.00  0.00    +0.000 HD
ATOM      6  H   UNK A   0       2.337  -0.032  -0.021  0.00  0.00    +0.000 HD
ENDROOT
BRANCH   1   7
ATOM      7  CA  ILE A   1      -1.290   1.681   0.017  0.00  0.00    +0.000 C 
BRANCH   7   8
ATOM      8  C   ILE A   1      -1.661   2.027   1.436  0.00  0.00    +0.000 C 
ATOM      9  O   ILE A   1      -0.932   1.708   2.346  0.00  0.00    +0.000 OA
ATOM     10  OXT ILE A   1      -2.801   2.688   1.690  0.00  0.00    +0.000 OA
ENDBRANCH   7   8
BRANCH   7  11
ATOM     11  CB  ILE A   1      -2.376   0.792  -0.592  0.00  0.00    +0.000 C 
ATOM     12  CG2 ILE A   1      -2.591  -0.433   0.298  0.00  0.00    +0.000 C 
BRANCH  11  14
ATOM     13  CD1 ILE A   1      -4.733   0.737  -1.418  0.00  0.00    +0.000 C 
ATOM     14  CG1 ILE A   1      -3.682   1.582  -0.696  0.00  0.00    +0.000 C 
ENDBRANCH  11  14
ENDBRANCH   7  11
ENDBRANCH   1   7
BRANCH   4  15
ATOM     15  C   UNK A   0       3.582   1.747  -0.023  0.00  0.00    +0.000 C 
BRANCH  15  16
ATOM     16  C   UNK A   0       4.758   0.769  -0.039  0.00  0.00    +0.000 C 
BRANCH  16  17
ATOM     17  C   UNK A   0       6.072   1.552  -0.048  0.00  0.00    +0.000 C 
BRANCH  17  23
ATOM     18  C   UNK A   0       7.267  -0.154   1.189  0.00  0.00    +0.000 C 
ATOM     19  C   UNK A   0       8.418  -1.160   1.107  0.00  0.00    +0.000 C 
ATOM     20  O   UNK A   0       9.636  -0.461   0.835  0.00  0.00    +0.000 OA
ATOM     21  C   UNK A   0       9.608   0.296  -0.378  0.00  0.00    +0.000 C 
ATOM     22  C   UNK A   0       8.469   1.316  -0.310  0.00  0.00    +0.000 C 
ATOM     23  N   UNK A   0       7.199   0.594  -0.083  0.00  0.00    +0.000 NA
ENDBRANCH  17  23
ENDBRANCH  16  17
ENDBRANCH  15  16
ENDBRANCH   4  15
TORSDOF 8
ENDMDL
MODEL      121
REMARK  Name = ZINC15936998
REMARK  10 active torsions:
REMARK  status: ('A' for Active; 'I' for Inactive)
REMARK    1  A    between atoms: C_1  and  C_2
REMARK    2  A    between atoms: C_2  and  O_3
REMARK    3  A    between atoms: O_3  and  C_4
REMARK    4  A    between atoms: C_4  and  C_6
REMARK    5  A    between atoms: N_10  and  C_11
REMARK    6  A    between atoms: C_11  and  S_12
REMARK    7  A    between atoms: S_12  and  C_13
REMARK    8  A    between atoms: C_13  and  C_14
REMARK    9  A    between atoms: C_14  and  C_15
REMARK   10  A    between atoms: C_14  and  N_18
REMARK                            x       y       z     vdW  Elec       q    Type
REMARK                         _______ _______ _______ _____ _____    ______ ____
ROOT
ATOM      1  C   UNK     1      -1.480   4.389   0.037  0.00  0.00    +0.000 C 
ENDROOT
BRANCH   1   6
ATOM      2  C   UNK     1      -1.125   1.900   0.017  0.00  0.00    +0.000 A 
ATOM      3  C   UNK     1      -0.013   1.076   0.008  0.00  0.00    +0.000 A 
ATOM      4  C   UNK     1       1.086   1.938   0.002  0.00  0.00    +0.000 A 
ATOM      5  N   UNK     1       0.634   3.166   0.012  0.00  0.00    +0.000 NA
ATOM      6  N   UNK     1      -0.650   3.182   0.024  0.00  0.00    +0.000 N 
BRANCH   2   7
ATOM      7  C   UNK     1      -2.534   1.481   0.020  0.00  0.00    +0.000 C 
ATOM      8  O   UNK     1      -2.817   0.299   0.015  0.00  0.00    +0.000 OA
BRANCH   7   9
ATOM      9  O   UNK     1      -3.513   2.408   0.029  0.00  0.00    +0.000 OA
BRANCH   9  11
ATOM     10  C   UNK     1      -5.845   3.111   0.041  0.00  0.00    +0.000 C 
ATOM     11  C   UNK     1      -4.881   1.922   0.032  0.00  0.00    +0.000 C 
ENDBRANCH   9  11
ENDBRANCH   7   9
ENDBRANCH   2   7
ENDBRANCH   1   6
BRANCH   1  12
ATOM     12  S   UNK     1      -1.837   4.896  -1.668  0.00  0.00    +0.000 S 
BRANCH  12  13
ATOM     13  C   UNK     1      -2.857   6.384  -1.479  0.00  0.00    +0.000 C 
BRANCH  13  14
ATOM     14  C   UNK     1      -3.235   6.922  -2.860  0.00  0.00    +0.000 C 
BRANCH  14  15
ATOM     15  N   UNK     1      -4.097   5.960  -3.570  0.00  0.00    +0.000 N 
ATOM     16  H   UNK     1      -4.951   5.803  -3.017  0.00  0.00    +0.000 HD
ATOM     17  H   UNK     1      -3.591   5.069  -3.674  0.00  0.00    +0.000 HD
ATOM     18  H   UNK     1      -4.346   6.330  -4.498  0.00  0.00    +0.000 HD
ENDBRANCH  14  15
BRANCH  14  19
ATOM     19  C   UNK     1      -3.978   8.224  -2.706  0.00  0.00    +0.000 C 
ATOM     20  O   UNK     1      -5.183   8.245  -2.782  0.00  0.00    +0.000 OA
ATOM     21  O   UNK     1      -3.300   9.362  -2.485  0.00  0.00    +0.000 OA
ENDBRANCH  14  19
ENDBRANCH  13  14
ENDBRANCH  12  13
ENDBRANCH   1  12
TORSDOF 9
ENDMDL
MODEL      122
REMARK  Name = ZINC20423298
REMARK  12 active torsions:
REMARK  status: ('A' for Active; 'I' for Inactive)
REMARK    1  A    between atoms: C_1  and  O_2
REMARK    2  A    between atoms: O_2  and  C_3
REMARK    3  A    between atoms: C_5  and  O_19
REMARK    4  A    between atoms: C_6  and  C_11
REMARK    5  A    between atoms: C_7  and  O_9
REMARK    6  A    between atoms: O_9  and  C_10
REMARK    7  A    between atoms: C_11  and  C_12
REMARK    8  A    between atoms: C_11  and  N_18
REMARK    9  A    between atoms: C_12  and  C_13
REMARK   10  A    between atoms: C_13  and  C_14
REMARK   11  A    between atoms: C_14  and  C_15
REMARK   12  A    between atoms: O_19  and  C_20
REMARK                            x       y       z     vdW  Elec       q    Type
REMARK                         _______ _______ _______ _____ _____    ______ ____
ROOT
ATOM      1  C   UNL     1      -1.975   1.163   1.348  0.00  0.00    +0.000 A 
ATOM      2  C   UNL     1      -2.588   0.364   0.394  0.00  0.00    +0.000 A 
ATOM      3  C   UNL     1      -3.906  -0.031   0.565  0.00  0.00    +0.000 A 
ATOM      4  C   UNL     1      -4.614   0.380   1.684  0.00  0.00    +0.000 A 
ATOM      5  C   UNL     1      -4.003   1.183   2.635  0.00  0.00    +0.000 A 
ATOM      6  C   UNL     1      -2.683   1.575   2.467  0.00  0.00    +0.000 A 
ENDROOT
BRANCH   3   7
ATOM      7  O   UNL     1      -4.505  -0.818  -0.367  0.00  0.00    +0.000 OA
ATOM      8  C   UNL     1      -3.716  -1.203  -1.495  0.00  0.00    +0.000 C 
ENDBRANCH   3   7
BRANCH   5   9
ATOM      9  O   UNL     1      -4.697   1.586   3.732  0.00  0.00    +0.000 OA
ATOM     10  C   UNL     1      -4.004   2.411   4.671  0.00  0.00    +0.000 C 
ENDBRANCH   5   9
BRANCH   1  12
ATOM     11  C   UNL     1      -0.013   1.086   0.008  0.00  0.00    +0.000 C 
ATOM     12  O   UNL     1      -0.682   1.547   1.184  0.00  0.00    +0.000 OA
ENDBRANCH   1  12
BRANCH   4  13
ATOM     13  C   UNL     1      -6.048  -0.046   1.867  0.00  0.00    +0.000 C 
BRANCH  13  14
ATOM     14  N   UNL     1      -6.774   0.119   0.600  0.00  0.00    +0.000 N 
ATOM     15  H   UNL     1      -6.333  -0.462  -0.127  0.00  0.00    +0.000 HD
ATOM     16  H   UNL     1      -6.744   1.108   0.313  0.00  0.00    +0.000 HD
ATOM     17  H   UNL     1      -7.754  -0.172   0.724  0.00  0.00    +0.000 HD
ENDBRANCH  13  14
BRANCH  13  18
ATOM     18  C   UNL     1      -6.093  -1.515   2.292  0.00  0.00    +0.000 C 
BRANCH  18  19
ATOM     19  C   UNL     1      -7.538  -1.913   2.599  0.00  0.00    +0.000 C 
BRANCH  19  20
ATOM     20  C   UNL     1      -7.583  -3.382   3.024  0.00  0.00    +0.000 C 
BRANCH  20  21
ATOM     21  C   UNL     1      -9.007  -3.774   3.326  0.00  0.00    +0.000 C 
ATOM     22  O   UNL     1      -9.894  -2.962   3.212  0.00  0.00    +0.000 OA
ATOM     23  O   UNL     1      -9.289  -5.026   3.721  0.00  0.00    +0.000 OA
ENDBRANCH  20  21
ENDBRANCH  19  20
ENDBRANCH  18  19
ENDBRANCH  13  18
ENDBRANCH   4  13
TORSDOF 9
ENDMDL
MODEL      123
REMARK  Name = ZINC17163853
REMARK  10 active torsions:
REMARK  status: ('A' for Active; 'I' for Inactive)
REMARK    1  A    between atoms: C_1  and  C_2
REMARK    2  A    between atoms: C_2  and  N_18
REMARK    3  A    between atoms: C_3  and  C_4
REMARK    4  A    between atoms: C_3  and  N_18
REMARK    5  A    between atoms: C_5  and  C_6
REMARK    6  A    between atoms: C_5  and  N_18
REMARK    7  A    between atoms: C_6  and  N_7
REMARK    8  A    between atoms: N_7  and  N_8
REMARK    9  A    between atoms: N_9  and  C_10
REMARK   10  A    between atoms: C_11  and  C_15
REMARK                            x       y       z     vdW  Elec       q    Type
REMARK                         _______ _______ _______ _____ _____    ______ ____
ROOT
ATOM      1  N   UNL     1       0.376   5.638  -1.340  0.00  0.00    +0.000 NA
ATOM      2  N   UNL     1       0.888   4.509  -1.700  0.00  0.00    +0.000 NA
ENDROOT
BRANCH   2   3
ATOM      3  C   UNL     1       0.075   3.438  -1.944  0.00  0.00    +0.000 A 
ATOM      4  C   UNL     1       0.482   2.165  -2.337  0.00  0.00    +0.000 A 
ATOM      5  N   UNL     1      -0.676   1.419  -2.464  0.00  0.00    +0.000 N 
ATOM      6  C   UNL     1      -1.709   2.227  -2.162  0.00  0.00    +0.000 A 
ATOM      7  N   UNL     1      -1.264   3.415  -1.851  0.00  0.00    +0.000 NA
ATOM      8  H   UNL     1      -0.737   0.428  -2.738  0.00  0.00    +0.000 HD
BRANCH   4   9
ATOM      9  C   UNL     1       1.852   1.711  -2.570  0.00  0.00    +0.000 C 
ATOM     10  O   UNL     1       2.783   2.482  -2.420  0.00  0.00    +0.000 OA
ATOM     11  N   UNL     1       2.085   0.439  -2.950  0.00  0.00    +0.000 N 
ATOM     12  H   UNL     1       1.298  -0.213  -3.077  0.00  0.00    +0.000 HD
ATOM     13  H   UNL     1       3.051   0.119  -3.114  0.00  0.00    +0.000 HD
ENDBRANCH   4   9
ENDBRANCH   2   3
BRANCH   1  14
ATOM     14  N   UNL     1       1.209   6.736  -1.089  0.00  0.00    +0.000 N 
ATOM     15  H   UNL     1       2.229   6.643  -1.192  0.00  0.00    +0.000 HD
BRANCH  14  16
ATOM     16  C   UNL     1       0.628   8.017  -0.680  0.00  0.00    +0.000 C 
BRANCH  16  17
ATOM     17  C   UNL     1       1.746   9.041  -0.472  0.00  0.00    +0.000 C 
BRANCH  17  18
ATOM     18  N   UNL     1       1.143  10.333  -0.081  0.00  0.00    +0.000 N 
ATOM     19  H   UNL     1       0.409  10.579  -0.761  0.00  0.00    +0.000 HD
BRANCH  18  20
ATOM     20  C   UNL     1       2.173  11.392  -0.083  0.00  0.00    +0.000 C 
ATOM     21  C   UNL     1       1.478  12.754  -0.039  0.00  0.00    +0.000 C 
ENDBRANCH  18  20
BRANCH  18  23
ATOM     22  C   UNL     1       1.591   9.831   2.297  0.00  0.00    +0.000 C 
ATOM     23  C   UNL     1       0.535  10.220   1.261  0.00  0.00    +0.000 C 
ENDBRANCH  18  23
ENDBRANCH  17  18
ENDBRANCH  16  17
ENDBRANCH  14  16
ENDBRANCH   1  14
TORSDOF 8
ENDMDL
MODEL      124
REMARK  Name = ZINC01703441
REMARK  11 active torsions:
REMARK  status: ('A' for Active; 'I' for Inactive)
REMARK    1  A    between atoms: C_1  and  C_2
REMARK    2  A    between atoms: C_2  and  O_3
REMARK    3  A    between atoms: O_3  and  C_4
REMARK    4  A    between atoms: N_6  and  P_7
REMARK    5  A    between atoms: P_7  and  N_8
REMARK    6  A    between atoms: P_7  and  N_14
REMARK    7  A    between atoms: N_11  and  O_12
REMARK    8  A    between atoms: O_12  and  C_13
REMARK    9  A    between atoms: C_15  and  O_17
REMARK   10  A    between atoms: O_17  and  C_18
REMARK   11  A    between atoms: C_18  and  C_19
REMARK                            x       y       z     vdW  Elec       q    Type
REMARK                         _______ _______ _______ _____ _____    ______ ____
ROOT
ATOM      1  P   UNL     1      -1.442   1.766   0.018  0.00  0.00    +0.000 P 
ENDROOT
BRANCH   1   2
ATOM      2  N   UNL     1      -0.011   0.966   0.007  0.00  0.00    +0.000 N 
ATOM      3  C   UNL     1       1.147   1.655   0.000  0.00  0.00    +0.000 C 
ATOM      4  O   UNL     1       1.130   2.871   0.007  0.00  0.00    +0.000 OA
ATOM      5  N   UNL     1       2.323   0.998  -0.015  0.00  0.00    +0.000 N 
ATOM      6  H   UNL     1       0.003  -0.064   0.006  0.00  0.00    +0.000 HD
ATOM      7  H   UNL     1       2.337  -0.032  -0.021  0.00  0.00    +0.000 HD
BRANCH   5   8
ATOM      8  O   UNL     1       3.539   1.722  -0.022  0.00  0.00    +0.000 OA
ATOM      9  C   UNL     1       4.707   0.898  -0.038  0.00  0.00    +0.000 C 
ENDBRANCH   5   8
ENDBRANCH   1   2
BRANCH   1  10
ATOM     10  N   UNL     1      -2.300   1.197   1.295  0.00  0.00    +0.000 N 
ATOM     11  C   UNL     1      -2.688   2.037   2.275  0.00  0.00    +0.000 C 
ATOM     12  O   UNL     1      -2.402   3.216   2.213  0.00  0.00    +0.000 OA
ATOM     13  H   UNL     1      -2.543   0.197   1.347  0.00  0.00    +0.000 HD
BRANCH  11  14
ATOM     14  O   UNL     1      -3.393   1.569   3.323  0.00  0.00    +0.000 OA
BRANCH  14  15
ATOM     15  C   UNL     1      -3.776   2.531   4.341  0.00  0.00    +0.000 C 
ATOM     16  C   UNL     1      -4.564   1.820   5.443  0.00  0.00    +0.000 C 
ENDBRANCH  14  15
ENDBRANCH  11  14
ENDBRANCH   1  10
BRANCH   1  19
ATOM     17  C   UNL     1      -2.602   2.254  -2.247  0.00  0.00    +0.000 C 
ATOM     18  O   UNL     1      -2.320   3.422  -2.062  0.00  0.00    +0.000 OA
ATOM     19  N   UNL     1      -2.250   1.323  -1.338  0.00  0.00    +0.000 N 
ATOM     20  H   UNL     1      -2.489   0.334  -1.496  0.00  0.00    +0.000 HD
BRANCH  17  21
ATOM     21  O   UNL     1      -3.265   1.891  -3.361  0.00  0.00    +0.000 OA
BRANCH  21  23
ATOM     22  C   UNL     1      -4.355   2.345  -5.491  0.00  0.00    +0.000 C 
ATOM     23  C   UNL     1      -3.611   2.946  -4.296  0.00  0.00    +0.000 C 
ENDBRANCH  21  23
ENDBRANCH  17  21
ENDBRANCH   1  19
TORSDOF 8
ENDMDL
MODEL      125
REMARK  Name = ZINC01588044
REMARK  12 active torsions:
REMARK  status: ('A' for Active; 'I' for Inactive)
REMARK    1  A    between atoms: C_3  and  N_20
REMARK    2  A    between atoms: N_7  and  C_10
REMARK    3  A    between atoms: C_10  and  C_11
REMARK    4  A    between atoms: C_11  and  C_12
REMARK    5  A    between atoms: C_11  and  O_19
REMARK    6  A    between atoms: C_12  and  N_21
REMARK    7  A    between atoms: C_13  and  C_14
REMARK    8  A    between atoms: C_13  and  N_21
REMARK    9  A    between atoms: C_14  and  O_15
REMARK   10  A    between atoms: C_16  and  C_17
REMARK   11  A    between atoms: C_16  and  N_21
REMARK   12  A    between atoms: C_17  and  O_18
REMARK                            x       y       z     vdW  Elec       q    Type
REMARK                         _______ _______ _______ _____ _____    ______ ____
ROOT
ATOM      1  C   UNL     1       4.230  -2.337  -1.730  0.00  0.00    +0.000 C 
ENDROOT
BRANCH   1   2
ATOM      2  O   UNL     1       5.044  -1.628  -2.666  0.00  0.00    +0.000 OA
ATOM      3  H   UNL     1       5.992  -1.677  -2.384  0.00  0.00    +0.000 HD
ENDBRANCH   1   2
BRANCH   1   4
ATOM      4  C   UNL     1       4.671  -3.801  -1.676  0.00  0.00    +0.000 C 
BRANCH   4   5
ATOM      5  N   UNL     1       4.346  -4.441  -2.968  0.00  0.00    +0.000 N 
ATOM      6  H   UNL     1       3.423  -4.108  -3.283  0.00  0.00    +0.000 HD
BRANCH   5   7
ATOM      7  C   UNL     1       4.297  -5.909  -2.806  0.00  0.00    +0.000 C 
BRANCH   7   8
ATOM      8  C   UNL     1       2.968  -6.286  -2.148  0.00  0.00    +0.000 C 
BRANCH   8   9
ATOM      9  O   UNL     1       1.891  -5.958  -3.027  0.00  0.00    +0.000 OA
ATOM     10  H   UNL     1       1.992  -6.459  -3.876  0.00  0.00    +0.000 HD
ENDBRANCH   8   9
ENDBRANCH   7   8
ENDBRANCH   5   7
BRANCH   5  11
ATOM     11  C   UNL     1       5.359  -4.078  -3.981  0.00  0.00    +0.000 C 
BRANCH  11  12
ATOM     12  C   UNL     1       4.807  -4.411  -5.368  0.00  0.00    +0.000 C 
BRANCH  12  13
ATOM     13  O   UNL     1       3.663  -3.598  -5.634  0.00  0.00    +0.000 OA
ATOM     14  H   UNL     1       3.921  -2.642  -5.603  0.00  0.00    +0.000 HD
ENDBRANCH  12  13
ENDBRANCH  11  12
ENDBRANCH   5  11
ENDBRANCH   4   5
ENDBRANCH   1   4
BRANCH   1  15
ATOM     15  C   UNL     1       4.382  -1.707  -0.343  0.00  0.00    +0.000 C 
BRANCH  15  22
ATOM     16  C   UNL     1       0.267   0.011   0.168  0.00  0.00    +0.000 A 
ATOM     17  N   UNL     1       0.187   1.326   0.078  0.00  0.00    +0.000 NA
ATOM     18  C   UNL     1       1.266   2.068  -0.149  0.00  0.00    +0.000 A 
ATOM     19  C   UNL     1       2.505   1.420  -0.293  0.00  0.00    +0.000 A 
ATOM     20  C   UNL     1       2.537   0.019  -0.189  0.00  0.00    +0.000 A 
ATOM     21  N   UNL     1       1.405  -0.638   0.040  0.00  0.00    +0.000 NA
ATOM     22  N   UNL     1       3.849  -0.343  -0.366  0.00  0.00    +0.000 N 
ATOM     23  C   UNL     1       4.565   0.800  -0.567  0.00  0.00    +0.000 A 
ATOM     24  N   UNL     1       3.774   1.833  -0.524  0.00  0.00    +0.000 NA
BRANCH  18  25
ATOM     25  N   UNL     1       1.172   3.445  -0.242  0.00  0.00    +0.000 N 
ATOM     26  H   UNL     1       0.253   3.899  -0.134  0.00  0.00    +0.000 HD
ATOM     27  H   UNL     1       2.013   4.014  -0.418  0.00  0.00    +0.000 HD
ENDBRANCH  18  25
ENDBRANCH  15  22
ENDBRANCH   1  15
TORSDOF 12
ENDMDL
MODEL      126
REMARK  Name = ZINC16310890
REMARK  11 active torsions:
REMARK  status: ('A' for Active; 'I' for Inactive)
REMARK    1  A    between atoms: C_1  and  C_2
REMARK    2  A    between atoms: C_2  and  N_21
REMARK    3  A    between atoms: C_3  and  C_4
REMARK    4  A    between atoms: C_3  and  N_21
REMARK    5  A    between atoms: C_5  and  C_6
REMARK    6  A    between atoms: C_5  and  N_21
REMARK    7  A    between atoms: C_6  and  C_7
REMARK    8  A    between atoms: C_7  and  C_8
REMARK    9  A    between atoms: C_8  and  C_9
REMARK   10  A    between atoms: C_8  and  N_10
REMARK   11  A    between atoms: C_11  and  C_12
REMARK                            x       y       z     vdW  Elec       q    Type
REMARK                         _______ _______ _______ _____ _____    ______ ____
ROOT
ATOM      1  N   UNL     1      -1.238   6.033  -0.085  0.00  0.00    +0.000 NA
ATOM      2  C   UNL     1      -0.062   5.379  -0.004  0.00  0.00    +0.000 C 
ENDROOT
BRANCH   2   3
ATOM      3  C   UNL     1      -0.037   3.997  -0.020  0.00  0.00    +0.000 C 
ATOM      4  C   UNL     1       1.233   3.252  -0.071  0.00  0.00    +0.000 C 
ATOM      5  O   UNL     1       2.300   3.836  -0.101  0.00  0.00    +0.000 OA
ATOM      6  N   UNL     1       1.181   1.904  -0.084  0.00  0.00    +0.000 N 
ATOM      7  C   UNL     1       0.013   1.247  -0.051  0.00  0.00    +0.000 C 
ATOM      8  O   UNL     1       0.034   0.032  -0.066  0.00  0.00    +0.000 OA
ATOM      9  N   UNL     1      -1.179   1.860  -0.009  0.00  0.00    +0.000 N 
ATOM     10  C   UNL     1      -1.280   3.205   0.014  0.00  0.00    +0.000 C 
ATOM     11  O   UNL     1      -2.367   3.749   0.057  0.00  0.00    +0.000 OA
ATOM     12  H   UNL     1       2.059   1.366  -0.119  0.00  0.00    +0.000 HD
ATOM     13  H   UNL     1      -2.037   1.291   0.006  0.00  0.00    +0.000 HD
ENDBRANCH   2   3
BRANCH   1  14
ATOM     14  C   UNL     1      -1.265   7.498  -0.069  0.00  0.00    +0.000 C 
ATOM     15  C   UNL     1      -1.040   8.028  -1.487  0.00  0.00    +0.000 C 
BRANCH  14  16
ATOM     16  C   UNL     1      -2.624   7.978   0.445  0.00  0.00    +0.000 C 
BRANCH  16  17
ATOM     17  C   UNL     1      -2.795   7.553   1.905  0.00  0.00    +0.000 C 
BRANCH  17  18
ATOM     18  C   UNL     1      -4.154   8.033   2.419  0.00  0.00    +0.000 C 
BRANCH  18  19
ATOM     19  N   UNL     1      -4.314   7.598   3.823  0.00  0.00    +0.000 N 
ATOM     20  H   UNL     1      -4.126   6.587   3.883  0.00  0.00    +0.000 HD
BRANCH  19  21
ATOM     21  C   UNL     1      -5.696   7.857   4.278  0.00  0.00    +0.000 C 
ATOM     22  C   UNL     1      -5.934   7.095   5.583  0.00  0.00    +0.000 C 
ENDBRANCH  19  21
BRANCH  19  24
ATOM     23  C   UNL     1      -3.644   9.819   4.678  0.00  0.00    +0.000 C 
ATOM     24  C   UNL     1      -3.354   8.316   4.687  0.00  0.00    +0.000 C 
ENDBRANCH  19  24
ENDBRANCH  18  19
ENDBRANCH  17  18
ENDBRANCH  16  17
ENDBRANCH  14  16
ENDBRANCH   1  14
TORSDOF 8
ENDMDL
MODEL      127
REMARK  Name = ZINC05739358
REMARK  9 active torsions:
REMARK  status: ('A' for Active; 'I' for Inactive)
REMARK    1  A    between atoms: C_1  and  C_2
REMARK    2  A    between atoms: C_2  and  N_18
REMARK    3  A    between atoms: C_3  and  C_4
REMARK    4  A    between atoms: C_3  and  N_18
REMARK    5  A    between atoms: C_5  and  C_6
REMARK    6  A    between atoms: C_5  and  N_18
REMARK    7  A    between atoms: C_6  and  N_19
REMARK    8  A    between atoms: C_7  and  C_9
REMARK    9  A    between atoms: C_7  and  N_19
REMARK                            x       y       z     vdW  Elec       q    Type
REMARK                         _______ _______ _______ _____ _____    ______ ____
ROOT
ATOM      1  C   UNL     1      -1.943   3.595  -1.182  0.00  0.00    +0.000 C 
ATOM      2  C   UNL     1      -3.093   4.224  -1.027  0.00  0.00    +0.000 C 
ENDROOT
BRANCH   1   3
ATOM      3  C   UNL     1      -1.177   3.119   0.025  0.00  0.00    +0.000 A 
ATOM      4  C   UNL     1      -1.169   1.602   0.007  0.00  0.00    +0.000 A 
ATOM      5  O   UNL     1      -2.202   0.968   0.005  0.00  0.00    +0.000 OA
ATOM      6  N   UNL     1       0.031   0.984  -0.004  0.00  0.00    +0.000 N 
ATOM      7  C   UNL     1       1.180   1.669  -0.008  0.00  0.00    +0.000 A 
ATOM      8  O   UNL     1       2.215   1.033  -0.022  0.00  0.00    +0.000 OA
ATOM      9  N   UNL     1       1.273   3.004   0.003  0.00  0.00    +0.000 N 
ATOM     10  C   UNL     1       0.181   3.796   0.020  0.00  0.00    +0.000 A 
ATOM     11  O   UNL     1       0.280   5.005   0.030  0.00  0.00    +0.000 OA
ATOM     12  H   UNL     1       0.063  -0.045  -0.009  0.00  0.00    +0.000 HD
ATOM     13  H   UNL     1       2.207   3.440  -0.001  0.00  0.00    +0.000 HD
ENDBRANCH   1   3
BRANCH   1  14
ATOM     14  N   UNL     1      -1.375   3.336  -2.464  0.00  0.00    +0.000 NA
ATOM     15  H   UNL     1      -0.441   3.768  -2.501  0.00  0.00    +0.000 HD
ATOM     16  H   UNL     1      -1.243   2.320  -2.564  0.00  0.00    +0.000 HD
BRANCH  14  17
ATOM     17  C   UNL     1      -2.185   3.834  -3.630  0.00  0.00    +0.000 C 
BRANCH  17  18
ATOM     18  C   UNL     1      -1.417   3.464  -4.901  0.00  0.00    +0.000 C 
BRANCH  18  19
ATOM     19  N   UNL     1      -2.247   3.809  -6.074  0.00  0.00    +0.000 NA
BRANCH  19  21
ATOM     20  C   UNL     1      -3.233   5.624  -7.385  0.00  0.00    +0.000 C 
ATOM     21  C   UNL     1      -2.198   5.266  -6.316  0.00  0.00    +0.000 C 
ENDBRANCH  19  21
BRANCH  19  22
ATOM     22  C   UNL     1      -1.763   3.082  -7.266  0.00  0.00    +0.000 C 
ATOM     23  C   UNL     1      -2.244   1.632  -7.185  0.00  0.00    +0.000 C 
ENDBRANCH  19  22
ENDBRANCH  18  19
ENDBRANCH  17  18
ENDBRANCH  14  17
ENDBRANCH   1  14
TORSDOF 7
ENDMDL
MODEL      128
REMARK  Name = ZINC05382434
REMARK  9 active torsions:
REMARK  status: ('A' for Active; 'I' for Inactive)
REMARK    1  A    between atoms: N_4  and  C_8
REMARK    2  A    between atoms: C_8  and  N_16
REMARK    3  A    between atoms: CA_9  and  CB_10
REMARK    4  A    between atoms: CA_9  and  C_14
REMARK    5  A    between atoms: CA_9  and  N_16
REMARK    6  A    between atoms: CB_10  and  CG_11
REMARK    7  A    between atoms: CG_11  and  CD_12
REMARK    8  A    between atoms: CD_12  and  CE_13
REMARK    9  A    between atoms: CE_13  and  NZ_17
REMARK                            x       y       z     vdW  Elec       q    Type
REMARK                         _______ _______ _______ _____ _____    ______ ____
ROOT
ATOM      1  CA  UNL     1      -0.018   1.465   0.010  0.00  0.00    +0.000 C 
ENDROOT
BRANCH   1   2
ATOM      2  N   UNL     1       0.001  -0.010  -0.007  0.00  0.00    +0.000 N 
ATOM      3  H1  UNL     1       0.794  -0.334  -0.580  0.00  0.00    +0.000 HD
ATOM      4  H2  UNL     1      -0.877  -0.357  -0.418  0.00  0.00    +0.000 HD
BRANCH   2   5
ATOM      5  C   ACE A   0       0.142  -0.536   1.364  0.00  0.00    +0.000 C 
BRANCH   5   9
ATOM      6  C   UNL     1      -3.197  -0.290   3.102  0.00  0.00    +0.000 C 
ATOM      7  C   UNL     1      -1.825   0.101   2.572  0.00  0.00    +0.000 C 
ATOM      8  O   UNL     1      -1.354   1.205   2.746  0.00  0.00    +0.000 OA
ATOM      9  N   UNL     1      -1.184  -0.845   1.906  0.00  0.00    +0.000 N 
ATOM     10  C   UNL     1      -1.685  -2.078   1.706  0.00  0.00    +0.000 C 
ATOM     11  S   UNL     1      -0.963  -3.388   0.874  0.00  0.00    +0.000 S 
ATOM     12  S   UNL     1      -3.279  -2.028   2.511  0.00  0.00    +0.000 S 
ENDBRANCH   5   9
ENDBRANCH   2   5
ENDBRANCH   1   2
BRANCH   1  13
ATOM     13  C   UNL     1       1.396   1.986  -0.001  0.00  0.00    +0.000 C 
ATOM     14  O   UNL     1       2.325   1.214  -0.014  0.00  0.00    +0.000 OA
ATOM     15  OXT UNL     1       1.623   3.309   0.004  0.00  0.00    +0.000 OA
ENDBRANCH   1  13
BRANCH   1  16
ATOM     16  CB  UNL     1      -0.758   1.972  -1.229  0.00  0.00    +0.000 C 
BRANCH  16  17
ATOM     17  CG  UNL     1      -2.226   1.546  -1.156  0.00  0.00    +0.000 C 
BRANCH  17  18
ATOM     18  CD  UNL     1      -2.966   2.053  -2.396  0.00  0.00    +0.000 C 
BRANCH  18  19
ATOM     19  CE  UNL     1      -4.434   1.628  -2.323  0.00  0.00    +0.000 C 
BRANCH  19  20
ATOM     20  NZ  UNL     1      -5.131   2.102  -3.531  0.00  0.00    +0.000 N 
ATOM     21  HZ1 UNL     1      -4.697   1.689  -4.368  0.00  0.00    +0.000 HD
ATOM     22  HZ2 UNL     1      -5.075   3.129  -3.585  0.00  0.00    +0.000 HD
ATOM     23  HZ3 UNL     1      -6.121   1.818  -3.486  0.00  0.00    +0.000 HD
ENDBRANCH  19  20
ENDBRANCH  18  19
ENDBRANCH  17  18
ENDBRANCH  16  17
ENDBRANCH   1  16
TORSDOF 9
ENDMDL
MODEL      129
REMARK  Name = ZINC19950324
REMARK  11 active torsions:
REMARK  status: ('A' for Active; 'I' for Inactive)
REMARK    1  A    between atoms: C_1  and  C_2
REMARK    2  A    between atoms: C_2  and  C_3
REMARK    3  A    between atoms: C_3  and  C_4
REMARK    4  A    between atoms: C_4  and  N_5
REMARK    5  A    between atoms: C_9  and  N_10
REMARK    6  A    between atoms: N_10  and  C_11
REMARK    7  A    between atoms: C_11  and  C_12
REMARK    8  A    between atoms: C_12  and  C_13
REMARK    9  A    between atoms: C_13  and  N_14
REMARK   10  A    between atoms: N_14  and  C_15
REMARK   11  A    between atoms: N_14  and  C_16
REMARK                            x       y       z     vdW  Elec       q    Type
REMARK                         _______ _______ _______ _____ _____    ______ ____
ROOT
ATOM      1  N   UNL     1      -0.437   1.368   3.959  0.00  0.00    +0.000 N 
ATOM      2  C   UNL     1      -0.225   2.638   4.361  0.00  0.00    +0.000 C 
ATOM      3  O   UNL     1       0.479   3.389   3.714  0.00  0.00    +0.000 OA
ATOM      4  C   UNL     1      -0.875   3.092   5.604  0.00  0.00    +0.000 C 
ATOM      5  C   UNL     1      -0.708   4.381   6.076  0.00  0.00    +0.000 C 
ATOM      6  C   UNL     1      -1.705   2.111   6.324  0.00  0.00    +0.000 C 
ATOM      7  O   UNL     1      -2.269   2.410   7.360  0.00  0.00    +0.000 OA
ATOM      8  N   UNL     1      -1.822   0.871   5.805  0.00  0.00    +0.000 N 
ATOM      9  C   UNL     1      -1.206   0.528   4.665  0.00  0.00    +0.000 C 
ATOM     10  O   UNL     1      -1.353  -0.605   4.250  0.00  0.00    +0.000 OA
ATOM     11  H   UNL     1      -2.399   0.172   6.295  0.00  0.00    +0.000 HD
ENDROOT
BRANCH   5  12
ATOM     12  N   UNL     1      -1.437   4.814   7.123  0.00  0.00    +0.000 N 
ATOM     13  H   UNL     1      -2.177   4.217   7.518  0.00  0.00    +0.000 HD
BRANCH  12  14
ATOM     14  C   UNL     1      -1.176   6.136   7.701  0.00  0.00    +0.000 C 
BRANCH  14  15
ATOM     15  C   UNL     1      -2.134   6.380   8.868  0.00  0.00    +0.000 C 
BRANCH  15  16
ATOM     16  C   UNL     1      -1.862   7.760   9.471  0.00  0.00    +0.000 C 
BRANCH  16  17
ATOM     17  N   UNL     1      -2.782   7.995  10.592  0.00  0.00    +0.000 N 
ATOM     18  C   UNL     1      -2.400   9.198  11.343  0.00  0.00    +0.000 C 
ATOM     19  C   UNL     1      -4.171   8.086  10.122  0.00  0.00    +0.000 C 
ATOM     20  H   UNL     1      -2.716   7.189  11.230  0.00  0.00    +0.000 HD
ENDBRANCH  16  17
ENDBRANCH  15  16
ENDBRANCH  14  15
ENDBRANCH  12  14
ENDBRANCH   5  12
BRANCH   1  21
ATOM     21  C   UNL     1       0.194   0.894   2.724  0.00  0.00    +0.000 C 
BRANCH  21  22
ATOM     22  C   UNL     1      -0.741   1.154   1.541  0.00  0.00    +0.000 C 
BRANCH  22  24
ATOM     23  C   UNL     1      -1.017   0.918  -0.931  0.00  0.00    +0.000 C 
ATOM     24  C   UNL     1      -0.082   0.659   0.252  0.00  0.00    +0.000 C 
ENDBRANCH  22  24
ENDBRANCH  21  22
ENDBRANCH   1  21
TORSDOF 8
ENDMDL
MODEL      130
REMARK  Name = ZINC01731417
REMARK  10 active torsions:
REMARK  status: ('A' for Active; 'I' for Inactive)
REMARK    1  A    between atoms: C_1  and  C_2
REMARK    2  A    between atoms: N_4  and  O_5
REMARK    3  A    between atoms: O_5  and  C_6
REMARK    4  A    between atoms: C_6  and  C_8
REMARK    5  A    between atoms: C_10  and  O_18
REMARK    6  A    between atoms: C_11  and  O_16
REMARK    7  A    between atoms: C_12  and  O_14
REMARK    8  A    between atoms: O_14  and  C_15
REMARK    9  A    between atoms: O_16  and  C_17
REMARK   10  A    between atoms: O_18  and  C_19
REMARK                            x       y       z     vdW  Elec       q    Type
REMARK                         _______ _______ _______ _____ _____    ______ ____
ROOT
ATOM      1  C   UNL     1      -3.124   0.586   0.018  0.00  0.00    +0.000 A 
ATOM      2  C   UNL     1      -3.492   1.933   0.034  0.00  0.00    +0.000 A 
ATOM      3  C   UNL     1      -4.829   2.284   0.037  0.00  0.00    +0.000 A 
ATOM      4  C   UNL     1      -5.809   1.294   0.036  0.00  0.00    +0.000 A 
ATOM      5  C   UNL     1      -5.445  -0.050   0.025  0.00  0.00    +0.000 A 
ATOM      6  C   UNL     1      -4.109  -0.405   0.017  0.00  0.00    +0.000 A 
ENDROOT
BRANCH   1   7
ATOM      7  C   UNL     1      -1.697   0.209   0.009  0.00  0.00    +0.000 C 
ATOM      8  O   UNL     1      -1.379  -0.964  -0.000  0.00  0.00    +0.000 OA
BRANCH   7   9
ATOM      9  O   UNL     1      -0.750   1.163   0.010  0.00  0.00    +0.000 OA
BRANCH   9  11
ATOM     10  C   UNL     1       1.419   1.707  -0.002  0.00  0.00    +0.000 C 
ATOM     11  N   UNL     1       0.409   0.790   0.002  0.00  0.00    +0.000 N 
ATOM     12  N   UNL     1       1.075   2.978   0.008  0.00  0.00    +0.000 NA
ATOM     13  H   UNL     1       0.627  -0.216  -0.001  0.00  0.00    +0.000 HD
ATOM     14  H   UNL     1       1.830   3.679   0.004  0.00  0.00    +0.000 HD
BRANCH  10  15
ATOM     15  C   UNL     1       2.854   1.246  -0.018  0.00  0.00    +0.000 C 
ATOM     16 CL   UNL     1       3.946   2.681  -0.021  0.00  0.00    +0.000 Cl
ENDBRANCH  10  15
ENDBRANCH   9  11
ENDBRANCH   7   9
ENDBRANCH   1   7
BRANCH   5  17
ATOM     17  O   UNL     1      -6.405  -1.013   0.024  0.00  0.00    +0.000 OA
ATOM     18  C   UNL     1      -5.960  -2.371   0.013  0.00  0.00    +0.000 C 
ENDBRANCH   5  17
BRANCH   4  19
ATOM     19  O   UNL     1      -7.123   1.641   0.045  0.00  0.00    +0.000 OA
ATOM     20  C   UNL     1      -7.743   1.798   1.323  0.00  0.00    +0.000 C 
ENDBRANCH   4  19
BRANCH   3  21
ATOM     21  O   UNL     1      -5.188   3.595   0.047  0.00  0.00    +0.000 OA
ATOM     22  C   UNL     1      -4.131   4.557   0.047  0.00  0.00    +0.000 C 
ENDBRANCH   3  21
TORSDOF 7
ENDMDL
MODEL      131
REMARK  Name = ZINC31706321
REMARK  11 active torsions:
REMARK  status: ('A' for Active; 'I' for Inactive)
REMARK    1  A    between atoms: C_1  and  C_2
REMARK    2  A    between atoms: C_2  and  C_3
REMARK    3  A    between atoms: C_3  and  C_4
REMARK    4  A    between atoms: C_3  and  C_15
REMARK    5  A    between atoms: C_3  and  O_20
REMARK    6  A    between atoms: C_8  and  O_10
REMARK    7  A    between atoms: O_10  and  S_11
REMARK    8  A    between atoms: C_15  and  C_16
REMARK    9  A    between atoms: C_15  and  C_17
REMARK   10  A    between atoms: C_17  and  N_18
REMARK   11  A    between atoms: N_18  and  C_19
REMARK                            x       y       z     vdW  Elec       q    Type
REMARK                         _______ _______ _______ _____ _____    ______ ____
ROOT
ATOM      1  C   UNL     1      -0.064   5.364   0.042  0.00  0.00    +0.000 C 
ENDROOT
BRANCH   1   2
ATOM      2  C   UNL     1      -0.158   3.872  -0.146  0.00  0.00    +0.000 A 
ATOM      3  C   UNL     1       0.548   3.025   0.689  0.00  0.00    +0.000 A 
ATOM      4  C   UNL     1       0.464   1.655   0.519  0.00  0.00    +0.000 A 
ATOM      5  C   UNL     1      -0.325   1.129  -0.486  0.00  0.00    +0.000 A 
ATOM      6  C   UNL     1      -1.029   1.977  -1.328  0.00  0.00    +0.000 A 
ATOM      7  C   UNL     1      -0.948   3.351  -1.153  0.00  0.00    +0.000 A 
BRANCH   6   8
ATOM      8  O   UNL     1      -1.801   1.462  -2.321  0.00  0.00    +0.000 OA
BRANCH   8   9
ATOM      9  S   UNL     1      -3.240   1.186  -1.907  0.00  0.00    +0.000 S 
ATOM     10  O   UNL     1      -3.840   0.469  -2.977  0.00  0.00    +0.000 OA
ATOM     11  O   UNL     1      -3.189   0.676  -0.582  0.00  0.00    +0.000 OA
ATOM     12  O   UNL     1      -3.951   2.529  -1.829  0.00  0.00    +0.000 OA
ENDBRANCH   8   9
ENDBRANCH   6   8
ENDBRANCH   1   2
BRANCH   1  14
ATOM     13  C   UNL     1      -1.302   5.070   2.192  0.00  0.00    +0.000 C 
ATOM     14  C   UNL     1      -0.067   5.691   1.536  0.00  0.00    +0.000 C 
ENDBRANCH   1  14
BRANCH   1  15
ATOM     15  C   UNL     1       1.231   5.877  -0.591  0.00  0.00    +0.000 C 
ATOM     16  C   UNL     1       2.427   5.183   0.062  0.00  0.00    +0.000 C 
BRANCH  15  17
ATOM     17  C   UNL     1       1.339   7.388  -0.376  0.00  0.00    +0.000 C 
BRANCH  17  18
ATOM     18  N   UNL     1       2.519   7.900  -1.085  0.00  0.00    +0.000 N 
ATOM     19  C   UNL     1       2.656   9.351  -0.901  0.00  0.00    +0.000 C 
ATOM     20  H   UNL     1       2.430   7.693  -2.090  0.00  0.00    +0.000 HD
ATOM     21  H   UNL     1       3.362   7.432  -0.723  0.00  0.00    +0.000 HD
ENDBRANCH  17  18
ENDBRANCH  15  17
ENDBRANCH   1  15
BRANCH   1  22
ATOM     22  O   UNL     1      -1.183   5.994  -0.586  0.00  0.00    +0.000 OA
ATOM     23  H   UNL     1      -1.122   6.974  -0.463  0.00  0.00    +0.000 HD
ENDBRANCH   1  22
TORSDOF 8
ENDMDL
MODEL      132
REMARK  Name = ZINC05063166
REMARK  9 active torsions:
REMARK  status: ('A' for Active; 'I' for Inactive)
REMARK    1  A    between atoms: N_9  and  C_13
REMARK    2  A    between atoms: C_13  and  C_14
REMARK    3  A    between atoms: C_14  and  N_21
REMARK    4  A    between atoms: C_15  and  C_16
REMARK    5  A    between atoms: C_15  and  N_21
REMARK    6  A    between atoms: C_16  and  O_17
REMARK    7  A    between atoms: C_18  and  C_19
REMARK    8  A    between atoms: C_18  and  N_21
REMARK    9  A    between atoms: C_19  and  O_20
REMARK                            x       y       z     vdW  Elec       q    Type
REMARK                         _______ _______ _______ _____ _____    ______ ____
ROOT
ATOM      1  C   UNL     1       2.049  -0.234   7.055  0.00  0.00    +0.000 C 
ATOM      2  C   UNL     1       2.406  -0.896   5.723  0.00  0.00    +0.000 C 
ATOM      3  C   UNL     1       2.144   0.086   4.579  0.00  0.00    +0.000 C 
ATOM      4  C   UNL     1       0.675   0.496   4.584  0.00  0.00    +0.000 C 
ATOM      5  C   UNL     1       0.298   1.136   5.915  0.00  0.00    +0.000 C 
ATOM      6  C   UNL     1       0.568   0.149   7.054  0.00  0.00    +0.000 C 
ATOM      7  C   UNL     1       0.390   1.446   3.443  0.00  0.00    +0.000 C 
ATOM      8  O   UNL     1       0.878   2.540   3.259  0.00  0.00    +0.000 OA
ATOM      9  N   UNL     1      -0.524   0.820   2.673  0.00  0.00    +0.000 N 
ATOM     10  C   UNL     1      -0.852  -0.378   3.172  0.00  0.00    +0.000 C 
ATOM     11  O   UNL     1      -1.659  -1.127   2.658  0.00  0.00    +0.000 OA
ATOM     12  N   UNL     1      -0.184  -0.662   4.307  0.00  0.00    +0.000 NA
ENDROOT
BRANCH   9  13
ATOM     13  C   UNL     1      -1.092   1.384   1.446  0.00  0.00    +0.000 C 
BRANCH  13  14
ATOM     14  C   UNL     1      -0.228   0.976   0.250  0.00  0.00    +0.000 C 
BRANCH  14  15
ATOM     15  N   UNL     1      -0.825   1.534  -0.981  0.00  0.00    +0.000 N 
ATOM     16  H   UNL     1      -1.821   1.273  -1.018  0.00  0.00    +0.000 HD
BRANCH  15  17
ATOM     17  C   UNL     1      -0.715   3.008  -0.973  0.00  0.00    +0.000 C 
BRANCH  17  18
ATOM     18  C   UNL     1      -1.654   3.577  -2.039  0.00  0.00    +0.000 C 
BRANCH  18  19
ATOM     19  O   UNL     1      -3.006   3.261  -1.700  0.00  0.00    +0.000 OA
ATOM     20  H   UNL     1      -3.228   3.657  -0.821  0.00  0.00    +0.000 HD
ENDBRANCH  18  19
ENDBRANCH  17  18
ENDBRANCH  15  17
BRANCH  15  21
ATOM     21  C   UNL     1      -0.140   0.983  -2.169  0.00  0.00    +0.000 C 
BRANCH  21  22
ATOM     22  C   UNL     1      -0.655  -0.436  -2.417  0.00  0.00    +0.000 C 
BRANCH  22  23
ATOM     23  O   UNL     1      -2.044  -0.388  -2.749  0.00  0.00    +0.000 OA
ATOM     24  H   UNL     1      -2.171   0.156  -3.566  0.00  0.00    +0.000 HD
ENDBRANCH  22  23
ENDBRANCH  21  22
ENDBRANCH  15  21
ENDBRANCH  14  15
ENDBRANCH  13  14
ENDBRANCH   9  13
TORSDOF 9
ENDMDL
MODEL      133
REMARK  Name = ZINC06503090
REMARK  10 active torsions:
REMARK  status: ('A' for Active; 'I' for Inactive)
REMARK    1  A    between atoms: C_2  and  C_3
REMARK    2  A    between atoms: C_2  and  N_20
REMARK    3  A    between atoms: C_3  and  C_4
REMARK    4  A    between atoms: C_3  and  C_6
REMARK    5  A    between atoms: C_6  and  C_8
REMARK    6  A    between atoms: C_8  and  O_9
REMARK    7  A    between atoms: O_9  and  C_10
REMARK    8  A    between atoms: C_10  and  C_12
REMARK    9  A    between atoms: C_12  and  O_13
REMARK   10  A    between atoms: O_13  and  C_14
REMARK                            x       y       z     vdW  Elec       q    Type
REMARK                         _______ _______ _______ _____ _____    ______ ____
ROOT
ATOM      1  C   UNL     1      -0.018   1.448   0.010  0.00  0.00    +0.000 C 
ENDROOT
BRANCH   1   2
ATOM      2  C   UNL     1      -0.723   1.934   1.250  0.00  0.00    +0.000 C 
ATOM      3  O   UNL     1      -1.164   1.139   2.045  0.00  0.00    +0.000 OA
BRANCH   2   4
ATOM      4  C   UNL     1      -0.878   3.412   1.498  0.00  0.00    +0.000 C 
BRANCH   4   5
ATOM      5  C   UNL     1      -2.137   3.881   0.896  0.00  0.00    +0.000 C 
ATOM      6  N   UNL     1      -3.109   4.242   0.432  0.00  0.00    +0.000 NA
ENDBRANCH   4   5
BRANCH   4   8
ATOM      7  C   UNL     1       0.011   4.450   3.531  0.00  0.00    +0.000 C 
ATOM      8  C   UNL     1      -0.903   3.673   2.982  0.00  0.00    +0.000 C 
BRANCH   8   9
ATOM      9  N   UNL     1      -2.056   3.314   3.733  0.00  0.00    +0.000 N 
ATOM     10  H   UNL     1      -2.178   3.657   4.697  0.00  0.00    +0.000 HD
ATOM     11  H   UNL     1      -2.772   2.708   3.310  0.00  0.00    +0.000 HD
ENDBRANCH   8   9
ENDBRANCH   4   8
ENDBRANCH   2   4
ENDBRANCH   1   2
BRANCH   1  12
ATOM     12  O   UNL     1       0.002  -0.004   0.002  0.00  0.00    +0.000 OA
BRANCH  12  13
ATOM     13  C   UNL     1       0.598  -0.600  -1.043  0.00  0.00    +0.000 C 
ATOM     14  O   UNL     1       1.088   0.070  -1.921  0.00  0.00    +0.000 OA
BRANCH  13  15
ATOM     15  C   UNL     1       0.657  -2.104  -1.120  0.00  0.00    +0.000 C 
BRANCH  15  16
ATOM     16  O   UNL     1       1.337  -2.493  -2.315  0.00  0.00    +0.000 OA
BRANCH  16  17
ATOM     17  C   UNL     1       1.477  -3.826  -2.539  0.00  0.00    +0.000 A 
ATOM     18  C   UNL     1       0.976  -4.741  -1.623  0.00  0.00    +0.000 A 
ATOM     19  C   UNL     1       1.115  -6.095  -1.856  0.00  0.00    +0.000 A 
ATOM     20  C   UNL     1       1.762  -6.540  -2.994  0.00  0.00    +0.000 A 
ATOM     21  C   UNL     1       2.267  -5.630  -3.905  0.00  0.00    +0.000 A 
ATOM     22  C   UNL     1       2.126  -4.275  -3.680  0.00  0.00    +0.000 A 
ENDBRANCH  16  17
ENDBRANCH  15  16
ENDBRANCH  13  15
ENDBRANCH  12  13
ENDBRANCH   1  12
TORSDOF 10
ENDMDL
MODEL      134
REMARK  Name = ZINC01591785
REMARK  7 active torsions:
REMARK  status: ('A' for Active; 'I' for Inactive)
REMARK    1  A    between atoms: NE_3  and  CD_4
REMARK    2  A    between atoms: CD_4  and  CG_5
REMARK    3  A    between atoms: CG_5  and  CB_6
REMARK    4  A    between atoms: CB_6  and  CA_7
REMARK    5  A    between atoms: CA_7  and  C_8
REMARK    6  A    between atoms: CA_7  and  N_10
REMARK    7  A    between atoms: C_11  and  C_12
REMARK                            x       y       z     vdW  Elec       q    Type
REMARK                         _______ _______ _______ _____ _____    ______ ____
ROOT
ATOM      1  CB  ARG A   1      -3.564   2.611   0.032  0.00  0.00    +0.000 C 
ENDROOT
BRANCH   1   2
ATOM      2  CG  ARG A   1      -2.403   1.614   0.022  0.00  0.00    +0.000 C 
BRANCH   2   3
ATOM      3  CD  ARG A   1      -1.077   2.376   0.019  0.00  0.00    +0.000 C 
BRANCH   3   6
ATOM      4  CZ  ARG A   1       1.332   1.878  -0.001  0.00  0.00    +0.000 C 
ATOM      5  NH1 ARG A   1       1.586   3.229   0.004  0.00  0.00    +0.000 N 
ATOM      6  NE  ARG A   1       0.035   1.422   0.009  0.00  0.00    +0.000 N 
ATOM      7  NH2 ARG A   1       2.292   0.964  -0.015  0.00  0.00    +0.000 N 
ATOM      8 HH11 ARG A   1       0.804   3.900   0.015  0.00  0.00    +0.000 HD
ATOM      9 HH12 ARG A   1       2.558   3.570  -0.003  0.00  0.00    +0.000 HD
ATOM     10  HE  ARG A   1      -0.155   0.410   0.010  0.00  0.00    +0.000 HD
ATOM     11 HH21 ARG A   1       3.268   1.292  -0.022  0.00  0.00    +0.000 HD
ATOM     12 HH22 ARG A   1       2.077  -0.043  -0.018  0.00  0.00    +0.000 HD
ENDBRANCH   3   6
ENDBRANCH   2   3
ENDBRANCH   1   2
BRANCH   1  13
ATOM     13  CA  ARG A   1      -4.891   1.848   0.035  0.00  0.00    +0.000 C 
BRANCH  13  14
ATOM     14  C   ARG A   1      -6.031   2.825   0.169  0.00  0.00    +0.000 C 
ATOM     15  O   ARG A   1      -6.873   2.892  -0.695  0.00  0.00    +0.000 OA
ATOM     16  OXT ARG A   1      -6.111   3.619   1.248  0.00  0.00    +0.000 OA
ENDBRANCH  13  14
BRANCH  13  17
ATOM     17  N   ARG A   1      -5.029   1.104  -1.220  0.00  0.00    +0.000 NA
ATOM     18  C   UNK A   0      -5.147  -0.183  -1.198  0.00  0.00    +0.000 C 
BRANCH  18  19
ATOM     19  C   UNK A   0      -5.287  -0.933  -2.462  0.00  0.00    +0.000 A 
ATOM     20  C   UNK A   0      -5.298  -0.254  -3.682  0.00  0.00    +0.000 A 
ATOM     21  C   UNK A   0      -5.423  -0.961  -4.860  0.00  0.00    +0.000 A 
ATOM     22  C   UNK A   0      -5.549  -2.339  -4.834  0.00  0.00    +0.000 A 
ATOM     23  C   UNK A   0      -5.544  -3.017  -3.628  0.00  0.00    +0.000 A 
ATOM     24  C   UNK A   0      -5.414  -2.323  -2.443  0.00  0.00    +0.000 A 
ENDBRANCH  18  19
ENDBRANCH  13  17
ENDBRANCH   1  13
TORSDOF 7
ENDMDL
MODEL      135
REMARK  Name = ZINC31425029
REMARK  12 active torsions:
REMARK  status: ('A' for Active; 'I' for Inactive)
REMARK    1  A    between atoms: C_1  and  C_2
REMARK    2  A    between atoms: C_2  and  C_3
REMARK    3  A    between atoms: C_2  and  N_4
REMARK    4  A    between atoms: N_4  and  C_5
REMARK    5  A    between atoms: C_5  and  C_6
REMARK    6  A    between atoms: C_6  and  C_7
REMARK    7  A    between atoms: C_6  and  O_21
REMARK    8  A    between atoms: C_7  and  O_8
REMARK    9  A    between atoms: O_8  and  C_9
REMARK   10  A    between atoms: C_12  and  N_18
REMARK   11  A    between atoms: C_14  and  C_15
REMARK   12  A    between atoms: C_15  and  C_17
REMARK                            x       y       z     vdW  Elec       q    Type
REMARK                         _______ _______ _______ _____ _____    ______ ____
ROOT
ATOM      1  O   UNL     1      -2.029   2.563   3.527  0.00  0.00    +0.000 OA
ENDROOT
BRANCH   1   2
ATOM      2  C   UNL     1      -1.535   3.464   2.648  0.00  0.00    +0.000 A 
ATOM      3  C   UNL     1      -1.686   4.827   2.902  0.00  0.00    +0.000 A 
ATOM      4  C   UNL     1      -1.203   5.753   2.029  0.00  0.00    +0.000 A 
ATOM      5  C   UNL     1      -0.513   5.312   0.815  0.00  0.00    +0.000 A 
ATOM      6  C   UNL     1      -0.361   3.925   0.573  0.00  0.00    +0.000 A 
ATOM      7  C   UNL     1      -0.870   3.013   1.490  0.00  0.00    +0.000 A 
BRANCH   5   8
ATOM      8  N   UNL     1      -0.036   6.200  -0.045  0.00  0.00    +0.000 NA
ATOM      9  N   UNL     1      -0.161   7.300   0.154  0.00  0.00    +0.000 NA
ATOM     10  N   UNL     1      -0.285   8.399   0.354  0.00  0.00    +0.000 NA
ENDBRANCH   5   8
BRANCH   7  11
ATOM     11  C   UNL     1      -0.718   1.572   1.248  0.00  0.00    +0.000 C 
ATOM     12  O   UNL     1      -1.161   0.773   2.046  0.00  0.00    +0.000 OA
ATOM     13  C   UNL     1      -0.013   1.086   0.008  0.00  0.00    +0.000 C 
ENDBRANCH   7  11
ENDBRANCH   1   2
BRANCH   1  14
ATOM     14  C   UNL     1      -2.693   3.080   4.682  0.00  0.00    +0.000 C 
BRANCH  14  15
ATOM     15  C   UNL     1      -3.180   1.919   5.552  0.00  0.00    +0.000 C 
BRANCH  15  16
ATOM     16  O   UNL     1      -2.055   1.196   6.055  0.00  0.00    +0.000 OA
ATOM     17  H   UNL     1      -2.369   0.445   6.618  0.00  0.00    +0.000 HD
ENDBRANCH  15  16
BRANCH  15  18
ATOM     18  C   UNL     1      -3.998   2.468   6.723  0.00  0.00    +0.000 C 
BRANCH  18  19
ATOM     19  N   UNL     1      -4.466   1.354   7.559  0.00  0.00    +0.000 N 
ATOM     20  H   UNL     1      -3.652   0.831   7.912  0.00  0.00    +0.000 HD
ATOM     21  H   UNL     1      -5.045   0.722   6.988  0.00  0.00    +0.000 HD
BRANCH  19  23
ATOM     22  C   UNL     1      -6.710   2.040   8.258  0.00  0.00    +0.000 C 
ATOM     23  C   UNL     1      -5.257   1.844   8.695  0.00  0.00    +0.000 C 
ATOM     24  C   UNL     1      -5.200   0.824   9.834  0.00  0.00    +0.000 C 
ENDBRANCH  19  23
ENDBRANCH  18  19
ENDBRANCH  15  18
ENDBRANCH  14  15
ENDBRANCH   1  14
TORSDOF 9
ENDMDL
MODEL      136
REMARK  Name = ZINC05424947
REMARK  9 active torsions:
REMARK  status: ('A' for Active; 'I' for Inactive)
REMARK    1  A    between atoms: C_1  and  C_2
REMARK    2  A    between atoms: C_3  and  C_7
REMARK    3  A    between atoms: C_7  and  S_8
REMARK    4  A    between atoms: S_8  and  C_9
REMARK    5  A    between atoms: C_9  and  C_10
REMARK    6  A    between atoms: C_10  and  N_19
REMARK    7  A    between atoms: N_12  and  C_13
REMARK    8  A    between atoms: N_15  and  C_16
REMARK    9  A    between atoms: N_15  and  N_17
REMARK                            x       y       z     vdW  Elec       q    Type
REMARK                         _______ _______ _______ _____ _____    ______ ____
ROOT
ATOM      1  C   UNL     1      -4.263   4.818   2.054  0.00  0.00    +0.000 C 
ENDROOT
BRANCH   1   6
ATOM      2  C   UNL     1      -5.913   4.215   3.775  0.00  0.00    +0.000 C 
ATOM      3  N   UNL     1      -6.764   4.620   4.782  0.00  0.00    +0.000 N 
ATOM      4  N   UNL     1      -5.956   2.909   3.314  0.00  0.00    +0.000 N 
ATOM      5  C   UNL     1      -7.210   2.153   3.371  0.00  0.00    +0.000 C 
ATOM      6  N   UNL     1      -5.061   5.122   3.291  0.00  0.00    +0.000 NA
ATOM      7  H   UNL     1      -7.432   3.951   5.191  0.00  0.00    +0.000 HD
BRANCH   4   8
ATOM      8  N   UNL     1      -4.892   2.359   2.834  0.00  0.00    +0.000 NA
ATOM      9  O   UNL     1      -4.931   1.211   2.429  0.00  0.00    +0.000 OA
ENDBRANCH   4   8
BRANCH   3  10
ATOM     10  C   UNL     1      -6.722   5.897   5.233  0.00  0.00    +0.000 C 
ATOM     11  N   UNL     1      -6.687   6.967   5.611  0.00  0.00    +0.000 NA
ENDBRANCH   3  10
ENDBRANCH   1   6
BRANCH   1  12
ATOM     12  C   UNL     1      -4.562   5.900   1.014  0.00  0.00    +0.000 C 
BRANCH  12  13
ATOM     13  S   UNL     1      -3.568   5.599  -0.474  0.00  0.00    +0.000 S 
BRANCH  13  14
ATOM     14  C   UNL     1      -4.033   6.949  -1.593  0.00  0.00    +0.000 C 
BRANCH  14  17
ATOM     15  C   UNL     1      -4.951   5.356  -4.126  0.00  0.00    +0.000 C 
ATOM     16  C   UNL     1      -3.668   6.132  -3.973  0.00  0.00    +0.000 A 
ATOM     17  C   UNL     1      -3.269   6.817  -2.885  0.00  0.00    +0.000 A 
ATOM     18  N   UNL     1      -2.075   7.365  -3.154  0.00  0.00    +0.000 NA
ATOM     19  C   UNL     1      -1.719   7.046  -4.368  0.00  0.00    +0.000 A 
ATOM     20  N   UNL     1      -2.685   6.277  -4.915  0.00  0.00    +0.000 N 
ATOM     21  H   UNL     1      -2.683   5.875  -5.863  0.00  0.00    +0.000 HD
ENDBRANCH  14  17
ENDBRANCH  13  14
ENDBRANCH  12  13
ENDBRANCH   1  12
TORSDOF 7
ENDMDL
MODEL      137
REMARK  Name = ZINC30620557
REMARK  7 active torsions:
REMARK  status: ('A' for Active; 'I' for Inactive)
REMARK    1  A    between atoms: C_2  and  C_16
REMARK    2  A    between atoms: C_7  and  C_9
REMARK    3  A    between atoms: C_9  and  C_10
REMARK    4  A    between atoms: C_10  and  S_11
REMARK    5  A    between atoms: S_11  and  C_12
REMARK    6  A    between atoms: C_12  and  C_13
REMARK    7  A    between atoms: C_16  and  C_17
REMARK                            x       y       z     vdW  Elec       q    Type
REMARK                         _______ _______ _______ _____ _____    ______ ____
ROOT
ATOM      1  C   UNL     1       0.366   4.007   0.020  0.00  0.00    +0.000 A 
ATOM      2  C   UNL     1      -0.894   3.509   0.029  0.00  0.00    +0.000 A 
ATOM      3  N   UNL     1      -1.054   2.200   0.018  0.00  0.00    +0.000 NA
ATOM      4  C   UNL     1      -0.017   1.386   0.010  0.00  0.00    +0.000 A 
ATOM      5  S   UNL     1       1.319   2.495   0.003  0.00  0.00    +0.000 S 
ATOM      6  N   UNL     1       0.002  -0.004   0.002  0.00  0.00    +0.000 N 
ATOM      7  C   UNL     1       1.178  -0.662  -0.012  0.00  0.00    +0.000 C 
ATOM      8  O   UNL     1       2.220  -0.041  -0.018  0.00  0.00    +0.000 OA
ATOM      9  H   UNL     1      -0.883  -0.531   0.007  0.00  0.00    +0.000 HD
ENDROOT
BRANCH   7  10
ATOM     10  C   UNL     1       1.199  -2.169  -0.021  0.00  0.00    +0.000 C 
BRANCH  10  11
ATOM     11  C   UNL     1       2.648  -2.659  -0.036  0.00  0.00    +0.000 C 
BRANCH  11  12
ATOM     12  S   UNL     1       2.672  -4.473  -0.046  0.00  0.00    +0.000 S 
BRANCH  12  13
ATOM     13  C   UNL     1       4.438  -4.888  -0.065  0.00  0.00    +0.000 C 
BRANCH  13  14
ATOM     14  C   UNL     1       4.602  -6.386  -0.074  0.00  0.00    +0.000 C 
ATOM     15  O   UNL     1       3.624  -7.103  -0.069  0.00  0.00    +0.000 OA
ATOM     16  N   UNL     1       5.836  -6.929  -0.088  0.00  0.00    +0.000 N 
ATOM     17  H   UNL     1       6.667  -6.319  -0.093  0.00  0.00    +0.000 HD
ATOM     18  H   UNL     1       5.948  -7.952  -0.095  0.00  0.00    +0.000 HD
ENDBRANCH  13  14
ENDBRANCH  12  13
ENDBRANCH  11  12
ENDBRANCH  10  11
ENDBRANCH   7  10
BRANCH   2  19
ATOM     19  C   UNL     1      -2.087   4.431   0.046  0.00  0.00    +0.000 C 
BRANCH  19  20
ATOM     20  C   UNL     1      -2.994   4.100  -1.111  0.00  0.00    +0.000 C 
ATOM     21  O   UNL     1      -2.701   3.204  -1.874  0.00  0.00    +0.000 OA
ATOM     22  N   UNL     1      -4.130   4.800  -1.298  0.00  0.00    +0.000 N 
ATOM     23  H   UNL     1      -4.379   5.561  -0.649  0.00  0.00    +0.000 HD
ATOM     24  H   UNL     1      -4.750   4.574  -2.088  0.00  0.00    +0.000 HD
ENDBRANCH  19  20
ENDBRANCH   2  19
TORSDOF 7
ENDMDL
MODEL      138
REMARK  Name = ZINC05164508
REMARK  10 active torsions:
REMARK  status: ('A' for Active; 'I' for Inactive)
REMARK    1  A    between atoms: CD1_1  and  CG_2
REMARK    2  A    between atoms: CG_2  and  CD2_3
REMARK    3  A    between atoms: CG_2  and  CB_4
REMARK    4  A    between atoms: CB_4  and  CA_5
REMARK    5  A    between atoms: CA_5  and  C_6
REMARK    6  A    between atoms: CA_5  and  N_8
REMARK    7  A    between atoms: N_11  and  C_12
REMARK    8  A    between atoms: C_12  and  C_13
REMARK    9  A    between atoms: C_13  and  C_14
REMARK   10  A    between atoms: C_14  and  N_15
REMARK                            x       y       z     vdW  Elec       q    Type
REMARK                         _______ _______ _______ _____ _____    ______ ____
ROOT
ATOM      1  N   LEU A   1      -0.131   0.053  -0.054  0.00  0.00    +0.000 N 
ATOM      2  C   UNK A   0       0.753  -0.731   0.594  0.00  0.00    +0.000 C 
ATOM      3  O   UNK A   0       1.655  -0.228   1.236  0.00  0.00    +0.000 OA
ATOM      4  N   UNK A   0       0.637  -2.072   0.531  0.00  0.00    +0.000 N 
ATOM      5  H   LEU A   1      -0.896  -0.373  -0.598  0.00  0.00    +0.000 HD
ATOM      6  H   UNK A   0      -0.127  -2.498  -0.013  0.00  0.00    +0.000 HD
ENDROOT
BRANCH   1   7
ATOM      7  CA  LEU A   1      -0.006   1.511   0.015  0.00  0.00    +0.000 C 
BRANCH   7   8
ATOM      8  C   LEU A   1      -0.689   2.016   1.259  0.00  0.00    +0.000 C 
ATOM      9  O   LEU A   1      -1.226   1.238   2.011  0.00  0.00    +0.000 OA
ATOM     10  OXT LEU A   1      -0.702   3.330   1.532  0.00  0.00    +0.000 OA
ENDBRANCH   7   8
BRANCH   7  11
ATOM     11  CB  LEU A   1      -0.661   2.138  -1.217  0.00  0.00    +0.000 C 
BRANCH  11  13
ATOM     12  CD1 LEU A   1      -0.654   2.198  -3.715  0.00  0.00    +0.000 C 
ATOM     13  CG  LEU A   1       0.086   1.691  -2.476  0.00  0.00    +0.000 C 
ATOM     14  CD2 LEU A   1       1.504   2.265  -2.458  0.00  0.00    +0.000 C 
ENDBRANCH  11  13
ENDBRANCH   7  11
ENDBRANCH   1   7
BRANCH   4  15
ATOM     15  C   UNK A   0       1.599  -2.924   1.235  0.00  0.00    +0.000 C 
BRANCH  15  16
ATOM     16  C   UNK A   0       1.244  -4.394   1.002  0.00  0.00    +0.000 C 
BRANCH  16  17
ATOM     17  C   UNK A   0       2.248  -5.284   1.737  0.00  0.00    +0.000 C 
BRANCH  17  18
ATOM     18  N   UNK A   0       1.908  -6.692   1.514  0.00  0.00    +0.000 N 
ATOM     19  C   UNK A   0       1.081  -7.460   2.288  0.00  0.00    +0.000 A 
ATOM     20  C   UNK A   0       1.046  -8.683   1.724  0.00  0.00    +0.000 A 
ATOM     21  N   UNK A   0       1.838  -8.664   0.642  0.00  0.00    +0.000 NA
ATOM     22  C   UNK A   0       2.358  -7.475   0.510  0.00  0.00    +0.000 A 
ENDBRANCH  17  18
ENDBRANCH  16  17
ENDBRANCH  15  16
ENDBRANCH   4  15
TORSDOF 8
ENDMDL
MODEL      139
REMARK  Name = ZINC02267972
REMARK  10 active torsions:
REMARK  status: ('A' for Active; 'I' for Inactive)
REMARK    1  A    between atoms: C_1  and  O_2
REMARK    2  A    between atoms: O_2  and  C_3
REMARK    3  A    between atoms: C_3  and  C_5
REMARK    4  A    between atoms: C_5  and  N_6
REMARK    5  A    between atoms: N_6  and  C_7
REMARK    6  A    between atoms: N_6  and  N_12
REMARK    7  A    between atoms: C_7  and  C_8
REMARK    8  A    between atoms: C_8  and  O_10
REMARK    9  A    between atoms: O_10  and  C_11
REMARK   10  A    between atoms: N_15  and  C_16
REMARK                            x       y       z     vdW  Elec       q    Type
REMARK                         _______ _______ _______ _____ _____    ______ ____
ROOT
ATOM      1  N   UNL     1      -1.125  -2.038   0.205  0.00  0.00    +0.000 N 
ATOM      2  C   UNL     1      -1.150  -0.694   0.111  0.00  0.00    +0.000 C 
ATOM      3  O   UNL     1      -2.213  -0.104   0.124  0.00  0.00    +0.000 OA
ATOM      4  N   UNL     1       0.002  -0.004   0.002  0.00  0.00    +0.000 N 
ATOM      5  H   UNL     1      -2.005  -2.566   0.288  0.00  0.00    +0.000 HD
ATOM      6  H   UNL     1       0.897  -0.506  -0.081  0.00  0.00    +0.000 HD
ENDROOT
BRANCH   4   7
ATOM      7  C   UNL     1      -0.018   1.395   0.002  0.00  0.00    +0.000 A 
ATOM      8  C   UNL     1      -1.068   2.076  -0.599  0.00  0.00    +0.000 A 
ATOM      9  C   UNL     1      -1.087   3.457  -0.594  0.00  0.00    +0.000 A 
ATOM     10  C   UNL     1      -0.057   4.162   0.001  0.00  0.00    +0.000 A 
ATOM     11  C   UNL     1       0.994   3.487   0.595  0.00  0.00    +0.000 A 
ATOM     12  C   UNL     1       1.016   2.106   0.597  0.00  0.00    +0.000 A 
ENDBRANCH   4   7
BRANCH   1  13
ATOM     13  N   UNL     1       0.070  -2.701   0.190  0.00  0.00    +0.000 NA
BRANCH  13  14
ATOM     14  C   UNL     1       0.261  -3.470   1.427  0.00  0.00    +0.000 C 
BRANCH  14  15
ATOM     15  C   UNL     1       0.365  -2.525   2.595  0.00  0.00    +0.000 C 
ATOM     16  O   UNL     1       0.288  -1.332   2.416  0.00  0.00    +0.000 OA
BRANCH  15  18
ATOM     17  C   UNL     1       0.635  -2.038   4.913  0.00  0.00    +0.000 C 
ATOM     18  O   UNL     1       0.543  -3.007   3.835  0.00  0.00    +0.000 OA
ENDBRANCH  15  18
ENDBRANCH  14  15
ENDBRANCH  13  14
BRANCH  13  19
ATOM     19  C   UNL     1       0.175  -3.569  -0.991  0.00  0.00    +0.000 C 
BRANCH  19  20
ATOM     20  C   UNL     1       0.195  -2.721  -2.237  0.00  0.00    +0.000 C 
ATOM     21  O   UNL     1       0.128  -1.518  -2.150  0.00  0.00    +0.000 OA
BRANCH  20  22
ATOM     22  O   UNL     1       0.287  -3.303  -3.443  0.00  0.00    +0.000 OA
ATOM     23  C   UNL     1       0.300  -2.425  -4.599  0.00  0.00    +0.000 C 
ENDBRANCH  20  22
ENDBRANCH  19  20
ENDBRANCH  13  19
ENDBRANCH   1  13
TORSDOF 8
ENDMDL
MODEL      140
REMARK  Name = ZINC20889249
REMARK  9 active torsions:
REMARK  status: ('A' for Active; 'I' for Inactive)
REMARK    1  A    between atoms: C_1  and  O_2
REMARK    2  A    between atoms: O_2  and  C_3
REMARK    3  A    between atoms: C_3  and  C_4
REMARK    4  A    between atoms: C_4  and  N_5
REMARK    5  A    between atoms: C_6  and  C_8
REMARK    6  A    between atoms: C_8  and  C_9
REMARK    7  A    between atoms: C_9  and  C_10
REMARK    8  A    between atoms: N_12  and  C_13
REMARK    9  A    between atoms: C_14  and  C_18
REMARK                            x       y       z     vdW  Elec       q    Type
REMARK                         _______ _______ _______ _____ _____    ______ ____
ROOT
ATOM      1  C   UNL     1      -1.193   2.040   0.019  0.00  0.00    +0.000 C 
ATOM      2  O   UNL     1      -2.235   1.420   0.020  0.00  0.00    +0.000 OA
ATOM      3  N   UNL     1      -0.017   1.382   0.010  0.00  0.00    +0.000 N 
ATOM      4  H   UNL     1       0.868   1.909   0.008  0.00  0.00    +0.000 HD
ENDROOT
BRANCH   3   5
ATOM      5  C   UNL     1       0.002  -0.004   0.002  0.00  0.00    +0.000 A 
ATOM      6  C   UNL     1       1.103  -0.853  -0.019  0.00  0.00    +0.000 A 
ATOM      7  C   UNL     1       0.830  -2.270  -0.018  0.00  0.00    +0.000 A 
ATOM      8  C   UNL     1      -0.461  -2.647  -0.008  0.00  0.00    +0.000 A 
ATOM      9  S   UNL     1      -1.340  -1.098   0.008  0.00  0.00    +0.000 S 
BRANCH   6  10
ATOM     10  C   UNL     1       2.474  -0.333  -0.037  0.00  0.00    +0.000 C 
ATOM     11  O   UNL     1       2.670   0.868  -0.034  0.00  0.00    +0.000 OA
ATOM     12  N   UNL     1       3.517  -1.186  -0.057  0.00  0.00    +0.000 N 
ATOM     13  H   UNL     1       3.352  -2.203  -0.059  0.00  0.00    +0.000 HD
ATOM     14  H   UNL     1       4.480  -0.821  -0.069  0.00  0.00    +0.000 HD
ENDBRANCH   6  10
ENDBRANCH   3   5
BRANCH   1  15
ATOM     15  C   UNL     1      -1.213   3.547   0.027  0.00  0.00    +0.000 C 
BRANCH  15  16
ATOM     16  C   UNL     1      -2.663   4.037   0.037  0.00  0.00    +0.000 C 
BRANCH  16  18
ATOM     17  N   UNL     1      -3.859   6.202   0.054  0.00  0.00    +0.000 N 
ATOM     18  C   UNL     1      -2.683   5.544   0.045  0.00  0.00    +0.000 C 
ATOM     19  O   UNL     1      -1.641   6.165   0.043  0.00  0.00    +0.000 OA
ATOM     20  H   UNL     1      -4.744   5.675   0.056  0.00  0.00    +0.000 HD
BRANCH  17  21
ATOM     21  C   UNL     1      -3.879   7.667   0.062  0.00  0.00    +0.000 C 
BRANCH  21  22
ATOM     22  C   UNL     1      -5.329   8.158   0.072  0.00  0.00    +0.000 C 
BRANCH  22  24
ATOM     23  C   UNL     1      -7.321   8.175   1.405  0.00  0.00    +0.000 C 
ATOM     24  O   UNL     1      -5.956   7.764   1.294  0.00  0.00    +0.000 OA
ENDBRANCH  22  24
ENDBRANCH  21  22
ENDBRANCH  17  21
ENDBRANCH  16  18
ENDBRANCH  15  16
ENDBRANCH   1  15
TORSDOF 8
ENDMDL
MODEL      141
REMARK  Name = ZINC05783398
REMARK  9 active torsions:
REMARK  status: ('A' for Active; 'I' for Inactive)
REMARK    1  A    between atoms: C_1  and  C_2
REMARK    2  A    between atoms: N_8  and  C_9
REMARK    3  A    between atoms: C_9  and  C_10
REMARK    4  A    between atoms: C_10  and  C_11
REMARK    5  A    between atoms: C_11  and  O_12
REMARK    6  A    between atoms: N_13  and  C_14
REMARK    7  A    between atoms: C_14  and  C_15
REMARK    8  A    between atoms: C_15  and  C_16
REMARK    9  A    between atoms: C_16  and  O_17
REMARK                            x       y       z     vdW  Elec       q    Type
REMARK                         _______ _______ _______ _____ _____    ______ ____
ROOT
ATOM      1  C   UNL     1      -3.354   3.376  -5.105  0.00  0.00    +0.000 C 
ATOM      2  C   UNL     1      -2.116   2.525  -4.986  0.00  0.00    +0.000 A 
ATOM      3  N   UNL     1      -1.501   2.102  -6.076  0.00  0.00    +0.000 NA
ATOM      4  C   UNL     1      -0.407   1.350  -5.976  0.00  0.00    +0.000 A 
ATOM      5  N   UNL     1       0.069   1.030  -4.777  0.00  0.00    +0.000 NA
ATOM      6  C   UNL     1      -0.555   1.454  -3.684  0.00  0.00    +0.000 A 
ATOM      7  N   UNL     1      -1.649   2.205  -3.792  0.00  0.00    +0.000 NA
ATOM      8  N   UNL     1      -0.067   1.120  -2.437  0.00  0.00    +0.000 N 
ATOM      9  N   UNL     1       0.235   0.908  -7.115  0.00  0.00    +0.000 N 
ATOM     10  H   UNL     1       0.779   0.539  -2.353  0.00  0.00    +0.000 HD
ATOM     11  H   UNL     1       1.082   0.327  -7.036  0.00  0.00    +0.000 HD
ENDROOT
BRANCH   8  12
ATOM     12  C   UNL     1      -0.753   1.593  -1.232  0.00  0.00    +0.000 C 
BRANCH  12  13
ATOM     13  C   UNL     1      -0.013   1.086   0.008  0.00  0.00    +0.000 C 
BRANCH  13  14
ATOM     14  C   UNL     1      -0.729   1.579   1.267  0.00  0.00    +0.000 C 
BRANCH  14  15
ATOM     15  O   UNL     1      -0.038   1.106   2.425  0.00  0.00    +0.000 OA
ATOM     16  H   UNL     1       0.891   1.448   2.418  0.00  0.00    +0.000 HD
ENDBRANCH  14  15
ENDBRANCH  13  14
ENDBRANCH  12  13
ENDBRANCH   8  12
BRANCH   9  17
ATOM     17  C   UNL     1      -0.288   1.266  -8.436  0.00  0.00    +0.000 C 
BRANCH  17  18
ATOM     18  C   UNL     1       0.602   0.654  -9.519  0.00  0.00    +0.000 C 
BRANCH  18  19
ATOM     19  C   UNL     1       0.056   1.028 -10.899  0.00  0.00    +0.000 C 
BRANCH  19  20
ATOM     20  O   UNL     1       0.888   0.457 -11.911  0.00  0.00    +0.000 OA
ATOM     21  H   UNL     1       0.895  -0.528 -11.816  0.00  0.00    +0.000 HD
ENDBRANCH  19  20
ENDBRANCH  18  19
ENDBRANCH  17  18
ENDBRANCH   9  17
TORSDOF 8
ENDMDL
MODEL      142
REMARK  Name = ZINC16808299
REMARK  9 active torsions:
REMARK  status: ('A' for Active; 'I' for Inactive)
REMARK    1  A    between atoms: C_1  and  C_2
REMARK    2  A    between atoms: C_4  and  N_9
REMARK    3  A    between atoms: N_9  and  N_10
REMARK    4  A    between atoms: N_10  and  C_11
REMARK    5  A    between atoms: C_11  and  S_13
REMARK    6  A    between atoms: S_13  and  C_14
REMARK    7  A    between atoms: C_14  and  C_15
REMARK    8  A    between atoms: C_15  and  O_17
REMARK    9  A    between atoms: O_17  and  C_18
REMARK                            x       y       z     vdW  Elec       q    Type
REMARK                         _______ _______ _______ _____ _____    ______ ____
ROOT
ATOM      1  N   UNL     1       1.097   3.398   0.009  0.00  0.00    +0.000 N 
ATOM      2  H   UNL     1       1.981   3.927   0.004  0.00  0.00    +0.000 HD
ENDROOT
BRANCH   1   6
ATOM      3  C   UNL     1       3.592  -0.844  -0.035  0.00  0.00    +0.000 C 
ATOM      4  C   UNL     1       2.307  -0.058  -0.020  0.00  0.00    +0.000 A 
ATOM      5  C   UNL     1       2.333   1.323  -0.013  0.00  0.00    +0.000 A 
ATOM      6  C   UNL     1       1.119   2.013   0.002  0.00  0.00    +0.000 A 
ATOM      7  N   UNL     1      -0.016   1.320   0.009  0.00  0.00    +0.000 NA
ATOM      8  C   UNL     1       0.002  -0.004   0.002  0.00  0.00    +0.000 A 
ATOM      9  N   UNL     1       1.139  -0.684  -0.012  0.00  0.00    +0.000 NA
ATOM     10  N   UNL     1      -1.197  -0.695   0.010  0.00  0.00    +0.000 N 
ATOM     11  H   UNL     1      -2.094  -0.189   0.021  0.00  0.00    +0.000 HD
ATOM     12  H   UNL     1      -1.191  -1.725   0.004  0.00  0.00    +0.000 HD
ENDBRANCH   1   6
BRANCH   1  13
ATOM     13  N   UNL     1      -0.127   4.079   0.024  0.00  0.00    +0.000 NA
BRANCH  13  14
ATOM     14  C   UNL     1      -0.149   5.426   0.031  0.00  0.00    +0.000 C 
ATOM     15  S   UNL     1      -1.645   6.259   0.049  0.00  0.00    +0.000 S 
BRANCH  14  16
ATOM     16  S   UNL     1       1.363   6.332   0.022  0.00  0.00    +0.000 S 
BRANCH  16  17
ATOM     17  C   UNL     1       0.717   8.022   0.036  0.00  0.00    +0.000 C 
BRANCH  17  18
ATOM     18  C   UNL     1       1.865   8.999   0.030  0.00  0.00    +0.000 C 
ATOM     19  O   UNL     1       3.003   8.593   0.018  0.00  0.00    +0.000 OA
BRANCH  18  20
ATOM     20  O   UNL     1       1.624  10.319   0.039  0.00  0.00    +0.000 OA
ATOM     21  C   UNL     1       2.777  11.200   0.033  0.00  0.00    +0.000 C 
ENDBRANCH  18  20
ENDBRANCH  17  18
ENDBRANCH  16  17
ENDBRANCH  14  16
ENDBRANCH  13  14
ENDBRANCH   1  13
TORSDOF 7
ENDMDL
MODEL      143
REMARK  Name = ZINC10186482
REMARK  11 active torsions:
REMARK  status: ('A' for Active; 'I' for Inactive)
REMARK    1  A    between atoms: C_1  and  C_2
REMARK    2  A    between atoms: C_4  and  O_19
REMARK    3  A    between atoms: C_7  and  N_8
REMARK    4  A    between atoms: C_9  and  C_11
REMARK    5  A    between atoms: C_11  and  C_12
REMARK    6  A    between atoms: C_12  and  C_13
REMARK    7  A    between atoms: C_12  and  N_21
REMARK    8  A    between atoms: C_15  and  C_16
REMARK    9  A    between atoms: C_15  and  N_21
REMARK   10  A    between atoms: C_16  and  C_17
REMARK   11  A    between atoms: C_16  and  C_18
REMARK                            x       y       z     vdW  Elec       q    Type
REMARK                         _______ _______ _______ _____ _____    ______ ____
ROOT
ATOM      1  N   UNK A   1      -2.119  -1.769  -2.318  0.00  0.00    +0.000 N 
ATOM      2  C   UNK A   1      -1.317  -0.747  -1.959  0.00  0.00    +0.000 C 
ATOM      3  O   UNK A   1      -0.112  -0.870  -2.025  0.00  0.00    +0.000 OA
ATOM      4  H   UNK A   1      -3.138  -1.696  -2.183  0.00  0.00    +0.000 HD
ENDROOT
BRANCH   1  11
ATOM      5  C   UNK A   1      -3.568  -4.203  -2.057  0.00  0.00    +0.000 C 
ATOM      6  C   UNK A   1      -2.242  -4.139  -2.772  0.00  0.00    +0.000 A 
ATOM      7  C   UNK A   1      -1.701  -5.282  -3.327  0.00  0.00    +0.000 A 
ATOM      8  C   UNK A   1      -0.479  -5.224  -3.980  0.00  0.00    +0.000 A 
ATOM      9  C   UNK A   1       0.198  -4.017  -4.080  0.00  0.00    +0.000 A 
ATOM     10  C   UNK A   1      -0.344  -2.873  -3.530  0.00  0.00    +0.000 A 
ATOM     11  C   UNK A   1      -1.568  -2.930  -2.877  0.00  0.00    +0.000 A 
BRANCH   8  12
ATOM     12  O   UNK A   1       0.057  -6.351  -4.521  0.00  0.00    +0.000 OA
ATOM     13  H   UNK A   1      -0.636  -6.689  -5.142  0.00  0.00    +0.000 HD
ENDBRANCH   8  12
ENDBRANCH   1  11
BRANCH   2  14
ATOM     14  C   UNK A   1      -1.917   0.548  -1.475  0.00  0.00    +0.000 C 
BRANCH  14  15
ATOM     15  C   UNK A   1      -0.796   1.533  -1.135  0.00  0.00    +0.000 C 
BRANCH  15  16
ATOM     16  C   UNK A   1      -1.395   2.867  -0.769  0.00  0.00    +0.000 C 
ATOM     17  O   UNK A   1      -1.194   3.339   0.325  0.00  0.00    +0.000 OA
ATOM     18  O   UNK A   1      -2.151   3.530  -1.658  0.00  0.00    +0.000 OA
ENDBRANCH  15  16
BRANCH  15  19
ATOM     19  N   UNK A   1      -0.022   1.010   0.007  0.00  0.00    +0.000 N 
ATOM     20  H   UNK A   1      -0.488   1.278   0.886  0.00  0.00    +0.000 HD
ATOM     21  H   UNK A   1       0.023  -0.017  -0.052  0.00  0.00    +0.000 HD
BRANCH  19  22
ATOM     22  C   UNK A   0       1.346   1.560  -0.008  0.00  0.00    +0.000 C 
BRANCH  22  23
ATOM     23  C   UNK A   0       2.124   1.002   1.185  0.00  0.00    +0.000 C 
ATOM     24  C   UNK A   0       3.579   1.467   1.109  0.00  0.00    +0.000 C 
ATOM     25  C   UNK A   0       1.494   1.506   2.486  0.00  0.00    +0.000 C 
ENDBRANCH  22  23
ENDBRANCH  19  22
ENDBRANCH  15  19
ENDBRANCH  14  15
ENDBRANCH   2  14
TORSDOF 8
ENDMDL
MODEL      144
REMARK  Name = ZINC31345689
REMARK  11 active torsions:
REMARK  status: ('A' for Active; 'I' for Inactive)
REMARK    1  A    between atoms: C_1  and  C_2
REMARK    2  A    between atoms: C_2  and  O_3
REMARK    3  A    between atoms: O_3  and  C_4
REMARK    4  A    between atoms: C_4  and  C_6
REMARK    5  A    between atoms: C_7  and  C_13
REMARK    6  A    between atoms: C_13  and  N_14
REMARK    7  A    between atoms: N_14  and  C_15
REMARK    8  A    between atoms: N_14  and  C_19
REMARK    9  A    between atoms: C_15  and  C_16
REMARK   10  A    between atoms: C_19  and  C_20
REMARK   11  A    between atoms: C_19  and  C_21
REMARK                            x       y       z     vdW  Elec       q    Type
REMARK                         _______ _______ _______ _____ _____    ______ ____
ROOT
ATOM      1  C   UNL     1      -2.241  -2.659  -0.210  0.00  0.00    +0.000 C 
ATOM      2  C   UNL     1      -1.854  -1.365  -0.189  0.00  0.00    +0.000 C 
ATOM      3  N   UNL     1      -0.566  -1.020   0.106  0.00  0.00    +0.000 N 
ATOM      4  C   UNL     1       0.395  -1.909   0.390  0.00  0.00    +0.000 C 
ATOM      5  O   UNL     1       1.514  -1.505   0.640  0.00  0.00    +0.000 OA
ATOM      6  N   UNL     1       0.161  -3.236   0.407  0.00  0.00    +0.000 N 
ATOM      7  C   UNL     1      -1.200  -3.712   0.110  0.00  0.00    +0.000 C 
ATOM      8  H   UNL     1      -0.319  -0.020   0.110  0.00  0.00    +0.000 HD
ATOM      9  H   UNL     1       0.917  -3.901   0.624  0.00  0.00    +0.000 HD
ENDROOT
BRANCH   1  10
ATOM     10  C   UNL     1      -3.575  -3.018  -0.514  0.00  0.00    +0.000 C 
ATOM     11  O   UNL     1      -4.396  -2.154  -0.762  0.00  0.00    +0.000 OA
BRANCH  10  12
ATOM     12  O   UNL     1      -3.939  -4.317  -0.523  0.00  0.00    +0.000 OA
BRANCH  12  14
ATOM     13  C   UNL     1      -5.524  -6.120  -0.800  0.00  0.00    +0.000 C 
ATOM     14  C   UNL     1      -5.303  -4.607  -0.839  0.00  0.00    +0.000 C 
ENDBRANCH  12  14
ENDBRANCH  10  12
ENDBRANCH   1  10
BRANCH   2  15
ATOM     15  C   UNL     1      -2.859  -0.285  -0.495  0.00  0.00    +0.000 C 
BRANCH  15  16
ATOM     16  N   UNL     1      -3.138  -0.270  -1.937  0.00  0.00    +0.000 NA
BRANCH  16  17
ATOM     17  C   UNL     1      -1.996   0.269  -2.688  0.00  0.00    +0.000 C 
ATOM     18  C   UNL     1      -1.440   1.495  -1.961  0.00  0.00    +0.000 C 
ATOM     19  C   UNL     1      -0.905  -0.799  -2.793  0.00  0.00    +0.000 C 
ENDBRANCH  16  17
BRANCH  16  20
ATOM     20  C   UNL     1      -4.363   0.486  -2.229  0.00  0.00    +0.000 C 
BRANCH  20  21
ATOM     21  C   UNL     1      -4.848   0.142  -3.614  0.00  0.00    +0.000 C 
ATOM     22  O   UNL     1      -4.286  -0.719  -4.256  0.00  0.00    +0.000 OA
ATOM     23  N   UNL     1      -5.906   0.791  -4.138  0.00  0.00    +0.000 N 
ATOM     24  H   UNL     1      -6.383   1.523  -3.592  0.00  0.00    +0.000 HD
ATOM     25  H   UNL     1      -6.237   0.556  -5.084  0.00  0.00    +0.000 HD
ENDBRANCH  20  21
ENDBRANCH  16  20
ENDBRANCH  15  16
ENDBRANCH   2  15
TORSDOF 8
ENDMDL
MODEL      145
REMARK  Name = ZINC06425106
REMARK  13 active torsions:
REMARK  status: ('A' for Active; 'I' for Inactive)
REMARK    1  A    between atoms: C_1  and  S_2
REMARK    2  A    between atoms: S_2  and  C_3
REMARK    3  A    between atoms: N_4  and  N_5
REMARK    4  A    between atoms: C_6  and  C_7
REMARK    5  A    between atoms: C_7  and  C_8
REMARK    6  A    between atoms: C_7  and  O_16
REMARK    7  A    between atoms: C_8  and  C_9
REMARK    8  A    between atoms: C_8  and  O_15
REMARK    9  A    between atoms: C_9  and  C_10
REMARK   10  A    between atoms: C_9  and  O_14
REMARK   11  A    between atoms: C_10  and  C_11
REMARK   12  A    between atoms: C_10  and  O_13
REMARK   13  A    between atoms: C_11  and  O_12
REMARK                            x       y       z     vdW  Elec       q    Type
REMARK                         _______ _______ _______ _____ _____    ______ ____
ROOT
ATOM      1  C   UNL     1      -0.753   1.593  -1.232  0.00  0.00    +0.000 C 
ENDROOT
BRANCH   1   2
ATOM      2  O   UNL     1      -0.084   1.132  -2.407  0.00  0.00    +0.000 OA
ATOM      3  H   UNL     1      -0.562   1.460  -3.210  0.00  0.00    +0.000 HD
ENDBRANCH   1   2
BRANCH   1   4
ATOM      4  C   UNL     1      -0.013   1.086   0.008  0.00  0.00    +0.000 C 
BRANCH   4   5
ATOM      5  O   UNL     1      -0.682   1.547   1.184  0.00  0.00    +0.000 OA
ATOM      6  H   UNL     1      -1.611   1.204   1.192  0.00  0.00    +0.000 HD
ENDBRANCH   4   5
BRANCH   4   7
ATOM      7  C   UNL     1       1.423   1.615  -0.003  0.00  0.00    +0.000 C 
BRANCH   7   8
ATOM      8  O   UNL     1       2.091   1.155  -1.179  0.00  0.00    +0.000 OA
ATOM      9  H   UNL     1       1.613   1.482  -1.981  0.00  0.00    +0.000 HD
ENDBRANCH   7   8
BRANCH   7  10
ATOM     10  C   UNL     1       2.163   1.109   1.237  0.00  0.00    +0.000 C 
BRANCH  10  11
ATOM     11  O   UNL     1       3.464   1.696   1.288  0.00  0.00    +0.000 OA
ATOM     12  H   UNL     1       3.381   2.681   1.334  0.00  0.00    +0.000 HD
ENDBRANCH  10  11
ENDBRANCH   7  10
ENDBRANCH   4   7
ENDBRANCH   1   4
BRANCH   1  13
ATOM     13  C   UNL     1      -2.188   1.063  -1.221  0.00  0.00    +0.000 C 
BRANCH  13  15
ATOM     14  N   UNL     1      -3.978   2.291  -2.309  0.00  0.00    +0.000 NA
ATOM     15  C   UNL     1      -2.917   1.562  -2.442  0.00  0.00    +0.000 C 
BRANCH  14  17
ATOM     16  C   UNL     1      -5.736   3.498  -3.309  0.00  0.00    +0.000 C 
ATOM     17  N   UNL     1      -4.655   2.755  -3.444  0.00  0.00    +0.000 NA
ATOM     18  S   UNL     1      -6.328   3.906  -1.700  0.00  0.00    +0.000 SA
BRANCH  16  20
ATOM     19  C   UNL     1      -5.550   3.367  -6.036  0.00  0.00    +0.000 C 
ATOM     20  S   UNL     1      -6.588   4.081  -4.736  0.00  0.00    +0.000 S 
ENDBRANCH  16  20
ENDBRANCH  14  17
ENDBRANCH  13  15
BRANCH  13  21
ATOM     21  O   UNL     1      -2.857   1.524  -0.045  0.00  0.00    +0.000 OA
ATOM     22  H   UNL     1      -3.786   1.181  -0.037  0.00  0.00    +0.000 HD
ENDBRANCH  13  21
ENDBRANCH   1  13
TORSDOF 12
ENDMDL
MODEL      146
REMARK  Name = ZINC04748240
REMARK  10 active torsions:
REMARK  status: ('A' for Active; 'I' for Inactive)
REMARK    1  A    between atoms: C_1  and  O_2
REMARK    2  A    between atoms: O_2  and  C_3
REMARK    3  A    between atoms: C_3  and  C_5
REMARK    4  A    between atoms: C_5  and  C_6
REMARK    5  A    between atoms: C_6  and  C_7
REMARK    6  A    between atoms: C_7  and  C_13
REMARK    7  A    between atoms: N_8  and  N_9
REMARK    8  A    between atoms: C_13  and  C_14
REMARK    9  A    between atoms: C_14  and  O_16
REMARK   10  A    between atoms: O_16  and  C_17
REMARK                            x       y       z     vdW  Elec       q    Type
REMARK                         _______ _______ _______ _____ _____    ______ ____
ROOT
ATOM      1  C   UNL     1      -1.412  -0.523   0.007  0.00  0.00    +0.000 C 
ATOM      2  N   UNL     1      -2.380   0.305  -0.115  0.00  0.00    +0.000 NA
ENDROOT
BRANCH   2   3
ATOM      3  N   UNL     1      -3.678  -0.165  -0.357  0.00  0.00    +0.000 N 
ATOM      4  C   UNL     1      -4.678   0.708  -0.587  0.00  0.00    +0.000 C 
ATOM      5  O   UNL     1      -5.804   0.300  -0.797  0.00  0.00    +0.000 OA
ATOM      6  N   UNL     1      -4.431   2.033  -0.584  0.00  0.00    +0.000 N 
ATOM      7  H   UNL     1      -3.867  -1.177  -0.359  0.00  0.00    +0.000 HD
ATOM      8  H   UNL     1      -3.477   2.378  -0.406  0.00  0.00    +0.000 HD
ATOM      9  H   UNL     1      -5.196   2.700  -0.760  0.00  0.00    +0.000 HD
ENDBRANCH   2   3
BRANCH   1  10
ATOM     10  C   UNL     1      -1.683  -2.006   0.004  0.00  0.00    +0.000 C 
BRANCH  10  11
ATOM     11  C   UNL     1      -2.065  -2.449   1.393  0.00  0.00    +0.000 C 
ATOM     12  O   UNL     1      -2.023  -1.665   2.311  0.00  0.00    +0.000 OA
BRANCH  11  13
ATOM     13  O   UNL     1      -2.450  -3.717   1.611  0.00  0.00    +0.000 OA
ATOM     14  C   UNL     1      -2.803  -4.074   2.973  0.00  0.00    +0.000 C 
ENDBRANCH  11  13
ENDBRANCH  10  11
ENDBRANCH   1  10
BRANCH   1  15
ATOM     15  C   UNL     1      -0.000  -0.016   0.155  0.00  0.00    +0.000 C 
BRANCH  15  16
ATOM     16  C   UNL     1      -0.003   1.514   0.127  0.00  0.00    +0.000 C 
BRANCH  16  17
ATOM     17  C   UNL     1       1.409   2.021   0.274  0.00  0.00    +0.000 C 
ATOM     18  O   UNL     1       2.323   1.239   0.390  0.00  0.00    +0.000 OA
BRANCH  17  20
ATOM     19  C   UNL     1       3.034   3.757   0.423  0.00  0.00    +0.000 C 
ATOM     20  O   UNL     1       1.651   3.341   0.277  0.00  0.00    +0.000 OA
ENDBRANCH  17  20
ENDBRANCH  16  17
ENDBRANCH  15  16
ENDBRANCH   1  15
TORSDOF 8
ENDMDL
MODEL      147
REMARK  Name = ZINC10569467
REMARK  9 active torsions:
REMARK  status: ('A' for Active; 'I' for Inactive)
REMARK    1  A    between atoms: C_1  and  C_2
REMARK    2  A    between atoms: C_8  and  C_10
REMARK    3  A    between atoms: C_10  and  C_11
REMARK    4  A    between atoms: C_10  and  S_12
REMARK    5  A    between atoms: S_12  and  C_13
REMARK    6  A    between atoms: C_13  and  C_14
REMARK    7  A    between atoms: C_14  and  O_16
REMARK    8  A    between atoms: O_16  and  C_17
REMARK    9  A    between atoms: C_17  and  C_18
REMARK                            x       y       z     vdW  Elec       q    Type
REMARK                         _______ _______ _______ _____ _____    ______ ____
ROOT
ATOM      1  C   UNL     1       1.754  -4.071  -0.039  0.00  0.00    +0.000 C 
ATOM      2  C   UNL     1       2.175  -4.429  -1.466  0.00  0.00    +0.000 C 
ENDROOT
BRANCH   1  10
ATOM      3  C   UNL     1      -1.237   2.232   0.020  0.00  0.00    +0.000 C 
ATOM      4  C   UNL     1      -0.016   1.348   0.009  0.00  0.00    +0.000 A 
ATOM      5  C   UNL     1       0.002  -0.004   0.002  0.00  0.00    +0.000 A 
ATOM      6  C   UNL     1       1.385  -0.328  -0.013  0.00  0.00    +0.000 A 
ATOM      7  N   UNL     1       2.026   0.811  -0.013  0.00  0.00    +0.000 NA
ATOM      8  O   UNL     1       1.263   1.749  -0.001  0.00  0.00    +0.000 OA
ATOM      9  N   UNL     1       1.946  -1.605  -0.026  0.00  0.00    +0.000 N 
ATOM     10  C   UNL     1       1.148  -2.691  -0.025  0.00  0.00    +0.000 C 
ATOM     11  O   UNL     1      -0.057  -2.559  -0.013  0.00  0.00    +0.000 OA
ATOM     12  H   UNL     1       2.970  -1.718  -0.036  0.00  0.00    +0.000 HD
ENDBRANCH   1  10
BRANCH   1  13
ATOM     13  S   UNL     1       0.532  -5.275   0.550  0.00  0.00    +0.000 S 
BRANCH  13  14
ATOM     14  C   UNL     1       1.451  -6.837   0.618  0.00  0.00    +0.000 C 
BRANCH  14  15
ATOM     15  C   UNL     1       0.539  -7.936   1.100  0.00  0.00    +0.000 C 
ATOM     16  O   UNL     1      -0.613  -7.690   1.369  0.00  0.00    +0.000 OA
BRANCH  15  17
ATOM     17  O   UNL     1       1.006  -9.188   1.229  0.00  0.00    +0.000 OA
BRANCH  17  18
ATOM     18  C   UNL     1       0.072 -10.195   1.697  0.00  0.00    +0.000 C 
BRANCH  18  19
ATOM     19  C   UNL     1       0.770 -11.528   1.779  0.00  0.00    +0.000 C 
ATOM     20  O   UNL     1       1.940 -11.620   1.473  0.00  0.00    +0.000 OA
ATOM     21  N   UNL     1       0.094 -12.618   2.193  0.00  0.00    +0.000 N 
ATOM     22  H   UNL     1      -0.899 -12.540   2.453  0.00  0.00    +0.000 HD
ATOM     23  H   UNL     1       0.571 -13.530   2.249  0.00  0.00    +0.000 HD
ENDBRANCH  18  19
ENDBRANCH  17  18
ENDBRANCH  15  17
ENDBRANCH  14  15
ENDBRANCH  13  14
ENDBRANCH   1  13
TORSDOF 7
ENDMDL
MODEL      148
REMARK  Name = ZINC11804938
REMARK  11 active torsions:
REMARK  status: ('A' for Active; 'I' for Inactive)
REMARK    1  A    between atoms: C_1  and  O_2
REMARK    2  A    between atoms: O_2  and  C_3
REMARK    3  A    between atoms: C_3  and  C_4
REMARK    4  A    between atoms: C_4  and  N_5
REMARK    5  A    between atoms: N_5  and  C_6
REMARK    6  A    between atoms: N_5  and  S_10
REMARK    7  A    between atoms: C_6  and  C_7
REMARK    8  A    between atoms: C_7  and  O_8
REMARK    9  A    between atoms: O_8  and  C_9
REMARK   10  A    between atoms: S_10  and  C_13
REMARK   11  A    between atoms: C_16  and  N_19
REMARK                            x       y       z     vdW  Elec       q    Type
REMARK                         _______ _______ _______ _____ _____    ______ ____
ROOT
ATOM      1  S   UNL     1       1.227  -2.443  -0.023  0.00  0.00    +0.000 S 
ATOM      2  O   UNL     1       2.482  -2.838   0.514  0.00  0.00    +0.000 OA
ATOM      3  O   UNL     1      -0.008  -2.865   0.538  0.00  0.00    +0.000 OA
ENDROOT
BRANCH   1   4
ATOM      4  C   UNL     1       1.208  -0.681  -0.013  0.00  0.00    +0.000 A 
ATOM      5  C   UNL     1       0.002  -0.004   0.002  0.00  0.00    +0.000 A 
ATOM      6  C   UNL     1      -0.017   1.377   0.010  0.00  0.00    +0.000 A 
ATOM      7  C   UNL     1       1.178   2.086   0.002  0.00  0.00    +0.000 A 
ATOM      8  C   UNL     1       2.387   1.403  -0.012  0.00  0.00    +0.000 A 
ATOM      9  C   UNL     1       2.399   0.022  -0.020  0.00  0.00    +0.000 A 
BRANCH   7  10
ATOM     10  N   UNL     1       1.162   3.483   0.010  0.00  0.00    +0.000 N 
ATOM     11  H   UNL     1       0.264   3.987   0.021  0.00  0.00    +0.000 HD
ATOM     12  H   UNL     1       2.048   4.008   0.004  0.00  0.00    +0.000 HD
ENDBRANCH   7  10
ENDBRANCH   1   4
BRANCH   1  13
ATOM     13  N   UNL     1       1.218  -2.924  -1.607  0.00  0.00    +0.000 NA
BRANCH  13  14
ATOM     14  C   UNL     1      -0.055  -3.150  -2.296  0.00  0.00    +0.000 C 
BRANCH  14  15
ATOM     15  C   UNL     1      -0.455  -1.885  -3.058  0.00  0.00    +0.000 C 
BRANCH  15  16
ATOM     16  O   UNL     1       0.496  -1.633  -4.094  0.00  0.00    +0.000 OA
ATOM     17  C   UNL     1       0.213  -0.467  -4.871  0.00  0.00    +0.000 C 
ENDBRANCH  15  16
ENDBRANCH  14  15
ENDBRANCH  13  14
BRANCH  13  18
ATOM     18  C   UNL     1       2.482  -3.123  -2.320  0.00  0.00    +0.000 C 
BRANCH  18  19
ATOM     19  C   UNL     1       2.877  -4.599  -2.255  0.00  0.00    +0.000 C 
BRANCH  19  21
ATOM     20  C   UNL     1       2.193  -6.784  -2.965  0.00  0.00    +0.000 C 
ATOM     21  O   UNL     1       1.916  -5.382  -2.965  0.00  0.00    +0.000 OA
ENDBRANCH  19  21
ENDBRANCH  18  19
ENDBRANCH  13  18
ENDBRANCH   1  13
TORSDOF 9
ENDMDL
MODEL      149
REMARK  Name = ZINC19328598
REMARK  10 active torsions:
REMARK  status: ('A' for Active; 'I' for Inactive)
REMARK    1  A    between atoms: C_1  and  C_2
REMARK    2  A    between atoms: C_2  and  N_3
REMARK    3  A    between atoms: C_2  and  N_4
REMARK    4  A    between atoms: N_4  and  C_5
REMARK    5  A    between atoms: C_5  and  C_6
REMARK    6  A    between atoms: C_6  and  C_7
REMARK    7  A    between atoms: C_7  and  C_8
REMARK    8  A    between atoms: C_8  and  C_9
REMARK    9  A    between atoms: C_9  and  C_10
REMARK   10  A    between atoms: C_9  and  N_18
REMARK                            x       y       z     vdW  Elec       q    Type
REMARK                         _______ _______ _______ _____ _____    ______ ____
ROOT
ATOM      1  C   UNL     1       7.134  -0.537  -1.142  0.00  0.00    +0.000 C 
ENDROOT
BRANCH   1   2
ATOM      2  C   UNL     1       8.542  -0.013  -1.023  0.00  0.00    +0.000 C 
ATOM      3  O   UNL     1       9.140   0.349  -2.014  0.00  0.00    +0.000 OA
ATOM      4  N   UNL     1       9.137   0.052   0.184  0.00  0.00    +0.000 N 
ATOM      5  C   UNL     1      10.444   0.538   0.295  0.00  0.00    +0.000 A 
ATOM      6  N   UNL     1      11.140   0.654   1.406  0.00  0.00    +0.000 NA
ATOM      7  N   UNL     1      12.388   1.175   1.027  0.00  0.00    +0.000 NA
ATOM      8  N   UNL     1      12.354   1.345  -0.251  0.00  0.00    +0.000 NA
ATOM      9  N   UNL     1      11.213   0.968  -0.707  0.00  0.00    +0.000 NA
ATOM     10  H   UNL     1       8.629  -0.257   1.026  0.00  0.00    +0.000 HD
ENDBRANCH   1   2
BRANCH   1  11
ATOM     11  N   UNL     1       6.883  -0.958  -2.527  0.00  0.00    +0.000 N 
ATOM     12  H   UNL     1       7.004  -0.153  -3.159  0.00  0.00    +0.000 HD
ATOM     13  H   UNL     1       5.921  -1.316  -2.609  0.00  0.00    +0.000 HD
ATOM     14  H   UNL     1       7.548  -1.700  -2.787  0.00  0.00    +0.000 HD
ENDBRANCH   1  11
BRANCH   1  15
ATOM     15  C   UNL     1       6.145   0.566  -0.757  0.00  0.00    +0.000 C 
BRANCH  15  16
ATOM     16  C   UNL     1       4.724  -0.001  -0.757  0.00  0.00    +0.000 C 
BRANCH  16  17
ATOM     17  C   UNL     1       3.736   1.102  -0.372  0.00  0.00    +0.000 C 
BRANCH  17  18
ATOM     18  C   UNL     1       2.314   0.536  -0.372  0.00  0.00    +0.000 C 
BRANCH  18  19
ATOM     19  N   UNL     1       1.365   1.594  -0.002  0.00  0.00    +0.000 NA
ATOM     20  H   UNL     1       1.438   2.366  -0.680  0.00  0.00    +0.000 HD
BRANCH  19  22
ATOM     21  C   UNL     1      -0.729   1.579   1.267  0.00  0.00    +0.000 C 
ATOM     22  C   UNL     1      -0.013   1.086   0.008  0.00  0.00    +0.000 C 
BRANCH  22  23
ATOM     23  N   UNL     1      -0.723   1.572  -1.182  0.00  0.00    +0.000 N 
ATOM     24  H   UNL     1      -0.738   2.602  -1.177  0.00  0.00    +0.000 HD
ATOM     25  H   UNL     1      -1.690   1.216  -1.176  0.00  0.00    +0.000 HD
ATOM     26  H   UNL     1      -0.242   1.240  -2.030  0.00  0.00    +0.000 HD
ENDBRANCH  22  23
ENDBRANCH  19  22
ENDBRANCH  18  19
ENDBRANCH  17  18
ENDBRANCH  16  17
ENDBRANCH  15  16
ENDBRANCH   1  15
TORSDOF 9
ENDMDL
MODEL      150
REMARK  Name = ZINC04824070
REMARK  13 active torsions:
REMARK  status: ('A' for Active; 'I' for Inactive)
REMARK    1  A    between atoms: C_1  and  O_2
REMARK    2  A    between atoms: O_2  and  C_3
REMARK    3  A    between atoms: C_3  and  C_5
REMARK    4  A    between atoms: C_10  and  N_11
REMARK    5  A    between atoms: N_11  and  C_12
REMARK    6  A    between atoms: C_12  and  C_13
REMARK    7  A    between atoms: C_13  and  C_14
REMARK    8  A    between atoms: C_13  and  O_20
REMARK    9  A    between atoms: C_14  and  C_15
REMARK   10  A    between atoms: C_14  and  O_19
REMARK   11  A    between atoms: C_15  and  C_16
REMARK   12  A    between atoms: C_15  and  O_18
REMARK   13  A    between atoms: C_16  and  O_17
REMARK                            x       y       z     vdW  Elec       q    Type
REMARK                         _______ _______ _______ _____ _____    ______ ____
ROOT
ATOM      1  C   UNL     1       0.012   0.065  -2.497  0.00  0.00    +0.000 C 
ENDROOT
BRANCH   1   2
ATOM      2  N   UNL     1       0.681  -0.433  -3.701  0.00  0.00    +0.000 N 
ATOM      3  H   UNL     1       1.523  -1.021  -3.616  0.00  0.00    +0.000 HD
BRANCH   2   9
ATOM      4  C   UNL     1       0.881  -0.494  -6.112  0.00  0.00    +0.000 A 
ATOM      5  C   UNL     1       0.366  -0.165  -7.370  0.00  0.00    +0.000 A 
ATOM      6  C   UNL     1      -0.820   0.529  -7.466  0.00  0.00    +0.000 A 
ATOM      7  C   UNL     1      -1.507   0.904  -6.322  0.00  0.00    +0.000 A 
ATOM      8  C   UNL     1      -1.016   0.583  -5.074  0.00  0.00    +0.000 A 
ATOM      9  C   UNL     1       0.182  -0.112  -4.956  0.00  0.00    +0.000 A 
BRANCH   4  10
ATOM     10  C   UNL     1       2.148  -1.236  -6.001  0.00  0.00    +0.000 C 
ATOM     11  O   UNL     1       2.538  -1.613  -4.914  0.00  0.00    +0.000 OA
BRANCH  10  13
ATOM     12  C   UNL     1       4.113  -2.234  -6.922  0.00  0.00    +0.000 C 
ATOM     13  O   UNL     1       2.875  -1.498  -7.106  0.00  0.00    +0.000 OA
ENDBRANCH  10  13
ENDBRANCH   4  10
ENDBRANCH   2   9
ENDBRANCH   1   2
BRANCH   1  14
ATOM     14  C   UNL     1       0.759  -0.430  -1.256  0.00  0.00    +0.000 C 
BRANCH  14  15
ATOM     15  O   UNL     1       0.765  -1.859  -1.242  0.00  0.00    +0.000 OA
ATOM     16  H   UNL     1       1.218  -2.196  -2.055  0.00  0.00    +0.000 HD
ENDBRANCH  14  15
BRANCH  14  17
ATOM     17  C   UNL     1       0.059   0.090   0.001  0.00  0.00    +0.000 C 
BRANCH  17  18
ATOM     18  O   UNL     1       0.053   1.519  -0.013  0.00  0.00    +0.000 OA
ATOM     19  H   UNL     1      -0.430   1.840  -0.815  0.00  0.00    +0.000 HD
ENDBRANCH  17  18
BRANCH  17  20
ATOM     20  C   UNL     1       0.806  -0.404   1.242  0.00  0.00    +0.000 C 
BRANCH  20  21
ATOM     21  O   UNL     1       0.812  -1.833   1.256  0.00  0.00    +0.000 OA
ATOM     22  H   UNL     1       1.265  -2.170   0.443  0.00  0.00    +0.000 HD
ENDBRANCH  20  21
BRANCH  20  23
ATOM     23  C   UNL     1       0.107   0.116   2.499  0.00  0.00    +0.000 C 
BRANCH  23  24
ATOM     24  O   UNL     1       0.868  -0.248   3.652  0.00  0.00    +0.000 OA
ATOM     25  H   UNL     1       1.773   0.150   3.591  0.00  0.00    +0.000 HD
ENDBRANCH  23  24
ENDBRANCH  20  23
ENDBRANCH  17  20
ENDBRANCH  14  17
ENDBRANCH   1  14
TORSDOF 12
ENDMDL
MODEL      151
REMARK  Name = ZINC04642041
REMARK  7 active torsions:
REMARK  status: ('A' for Active; 'I' for Inactive)
REMARK    1  A    between atoms: C_2  and  C_3
REMARK    2  A    between atoms: C_2  and  N_22
REMARK    3  A    between atoms: N_9  and  C_12
REMARK    4  A    between atoms: C_12  and  C_13
REMARK    5  A    between atoms: C_19  and  C_20
REMARK    6  A    between atoms: C_19  and  N_22
REMARK    7  A    between atoms: C_20  and  O_21
REMARK                            x       y       z     vdW  Elec       q    Type
REMARK                         _______ _______ _______ _____ _____    ______ ____
ROOT
ATOM      1  C   UNL     1       5.264   1.838  -3.470  0.00  0.00    +0.000 A 
ATOM      2  C   UNL     1       4.735   3.133  -4.057  0.00  0.00    +0.000 A 
ATOM      3  O   UNL     1       4.998   3.462  -5.194  0.00  0.00    +0.000 OA
ATOM      4  N   UNL     1       3.959   3.906  -3.267  0.00  0.00    +0.000 N 
ATOM      5  C   UNL     1       3.659   3.557  -2.011  0.00  0.00    +0.000 A 
ATOM      6  O   UNL     1       2.955   4.312  -1.370  0.00  0.00    +0.000 OA
ATOM      7  N   UNL     1       4.078   2.438  -1.408  0.00  0.00    +0.000 N 
ATOM      8  C   UNL     1       4.868   1.541  -2.036  0.00  0.00    +0.000 A 
ATOM      9  O   UNL     1       5.244   0.534  -1.476  0.00  0.00    +0.000 OA
ATOM     10  H   UNL     1       3.587   4.790  -3.643  0.00  0.00    +0.000 HD
ENDROOT
BRANCH   1  12
ATOM     11  C   UNL     1       5.665  -0.087  -4.931  0.00  0.00    +0.000 C 
ATOM     12  C   UNL     1       4.788   0.701  -4.337  0.00  0.00    +0.000 C 
BRANCH  12  13
ATOM     13  N   UNL     1       3.380   0.527  -4.478  0.00  0.00    +0.000 NA
ATOM     14  H   UNL     1       2.971   0.392  -3.542  0.00  0.00    +0.000 HD
ATOM     15  H   UNL     1       2.978   1.395  -4.861  0.00  0.00    +0.000 HD
BRANCH  13  16
ATOM     16  C   UNL     1       2.966  -0.623  -5.355  0.00  0.00    +0.000 C 
BRANCH  16  17
ATOM     17  C   UNL     1       1.436  -0.641  -5.378  0.00  0.00    +0.000 C 
BRANCH  17  18
ATOM     18  O   UNL     1       0.955   0.545  -6.013  0.00  0.00    +0.000 OA
ATOM     19  H   UNL     1       1.298   0.586  -6.941  0.00  0.00    +0.000 HD
ENDBRANCH  17  18
ENDBRANCH  16  17
ENDBRANCH  13  16
ENDBRANCH  12  13
ENDBRANCH   1  12
BRANCH   7  20
ATOM     20  C   UNL     1       3.672   2.182  -0.024  0.00  0.00    +0.000 C 
BRANCH  20  21
ATOM     21  C   UNL     1       2.377   1.411  -0.015  0.00  0.00    +0.000 A 
ATOM     22  C   UNL     1       1.171   2.086   0.002  0.00  0.00    +0.000 A 
ATOM     23  C   UNL     1      -0.017   1.378   0.010  0.00  0.00    +0.000 A 
ATOM     24  C   UNL     1       0.002  -0.004   0.002  0.00  0.00    +0.000 A 
ATOM     25  C   UNL     1       1.208  -0.679  -0.013  0.00  0.00    +0.000 A 
ATOM     26  C   UNL     1       2.396   0.029  -0.022  0.00  0.00    +0.000 A 
ENDBRANCH  20  21
ENDBRANCH   7  20
TORSDOF 7
ENDMDL
MODEL      152
REMARK  Name = ZINC05610225
REMARK  9 active torsions:
REMARK  status: ('A' for Active; 'I' for Inactive)
REMARK    1  A    between atoms: C_1  and  N_2
REMARK    2  A    between atoms: N_2  and  C_3
REMARK    3  A    between atoms: N_2  and  C_4
REMARK    4  A    between atoms: C_10  and  N_15
REMARK    5  A    between atoms: C_11  and  C_13
REMARK    6  A    between atoms: N_15  and  C_16
REMARK    7  A    between atoms: C_16  and  C_17
REMARK    8  A    between atoms: C_17  and  C_18
REMARK    9  A    between atoms: C_18  and  O_19
REMARK                            x       y       z     vdW  Elec       q    Type
REMARK                         _______ _______ _______ _____ _____    ______ ____
ROOT
ATOM      1  C   UNL     1      -0.933   4.131  -0.520  0.00  0.00    +0.000 A 
ATOM      2  C   UNL     1      -1.365   2.833  -0.232  0.00  0.00    +0.000 A 
ATOM      3  C   UNL     1      -0.496   1.891   0.226  0.00  0.00    +0.000 A 
ATOM      4  C   UNL     1       0.859   2.211   0.405  0.00  0.00    +0.000 A 
ATOM      5  C   UNL     1       1.304   3.522   0.110  0.00  0.00    +0.000 A 
ATOM      6  C   UNL     1       0.392   4.479  -0.355  0.00  0.00    +0.000 A 
ATOM      7  C   UNL     1       2.671   3.843   0.292  0.00  0.00    +0.000 A 
ATOM      8  C   UNL     1       3.522   2.831   0.760  0.00  0.00    +0.000 A 
ATOM      9  C   UNL     1       2.994   1.557   1.027  0.00  0.00    +0.000 A 
ATOM     10  N   UNL     1       1.699   1.214   0.866  0.00  0.00    +0.000 N 
ATOM     11  H   UNL     1       1.356   0.265   1.075  0.00  0.00    +0.000 HD
ENDROOT
BRANCH   1  13
ATOM     12  C   UNL     1      -1.429   6.473  -1.165  0.00  0.00    +0.000 C 
ATOM     13  N   UNL     1      -1.847   5.080  -0.984  0.00  0.00    +0.000 N 
ATOM     14  C   UNL     1      -3.224   4.683  -1.290  0.00  0.00    +0.000 C 
ENDBRANCH   1  13
BRANCH   8  15
ATOM     15  C   UNL     1       4.953   3.101   0.969  0.00  0.00    +0.000 C 
ATOM     16  O   UNL     1       5.384   4.229   0.837  0.00  0.00    +0.000 OA
ATOM     17  O   UNL     1       5.786   2.096   1.308  0.00  0.00    +0.000 OA
ENDBRANCH   8  15
BRANCH   7  18
ATOM     18  N   UNL     1       3.149   5.105   0.018  0.00  0.00    +0.000 N 
ATOM     19  H   UNL     1       3.301   5.838   0.725  0.00  0.00    +0.000 HD
BRANCH  18  20
ATOM     20  C   UNL     1       3.412   5.268  -1.419  0.00  0.00    +0.000 C 
BRANCH  20  21
ATOM     21  C   UNL     1       3.938   6.680  -1.684  0.00  0.00    +0.000 C 
BRANCH  21  22
ATOM     22  C   UNL     1       4.212   6.849  -3.179  0.00  0.00    +0.000 C 
BRANCH  22  23
ATOM     23  O   UNL     1       4.703   8.168  -3.427  0.00  0.00    +0.000 OA
ATOM     24  H   UNL     1       5.541   8.310  -2.921  0.00  0.00    +0.000 HD
ENDBRANCH  22  23
ENDBRANCH  21  22
ENDBRANCH  20  21
ENDBRANCH  18  20
ENDBRANCH   7  18
TORSDOF 7
ENDMDL
MODEL      153
REMARK  Name = ZINC25503459
REMARK  10 active torsions:
REMARK  status: ('A' for Active; 'I' for Inactive)
REMARK    1  A    between atoms: N_4  and  C_7
REMARK    2  A    between atoms: C_7  and  C_8
REMARK    3  A    between atoms: C_8  and  C_11
REMARK    4  A    between atoms: C_11  and  C_12
REMARK    5  A    between atoms: C_11  and  O_18
REMARK    6  A    between atoms: C_12  and  C_13
REMARK    7  A    between atoms: C_12  and  O_17
REMARK    8  A    between atoms: C_13  and  C_14
REMARK    9  A    between atoms: C_13  and  O_16
REMARK   10  A    between atoms: C_14  and  O_15
REMARK                            x       y       z     vdW  Elec       q    Type
REMARK                         _______ _______ _______ _____ _____    ______ ____
ROOT
ATOM      1  C   UNL     1      -0.750   1.584  -1.236  0.00  0.00    +0.000 C 
ENDROOT
BRANCH   1   2
ATOM      2  C   UNL     1      -2.188   1.141  -1.321  0.00  0.00    +0.000 C 
ATOM      3  N   UNL     1      -2.701   0.449  -0.375  0.00  0.00    +0.000 NA
ATOM      4  O   UNL     1      -1.955   0.196   0.802  0.00  0.00    +0.000 OA
BRANCH   2   5
ATOM      5  C   UNL     1      -3.022   1.514  -2.519  0.00  0.00    +0.000 C 
BRANCH   5   9
ATOM      6  C   UNL     1      -6.744  -0.502  -3.118  0.00  0.00    +0.000 C 
ATOM      7  C   UNL     1      -6.709   1.028  -3.106  0.00  0.00    +0.000 C 
ATOM      8  C   UNL     1      -5.282   1.504  -3.386  0.00  0.00    +0.000 C 
ATOM      9  N   UNL     1      -4.376   0.967  -2.362  0.00  0.00    +0.000 N 
ATOM     10  C   UNL     1      -4.357  -0.501  -2.386  0.00  0.00    +0.000 C 
ATOM     11  C   UNL     1      -5.757  -1.036  -2.076  0.00  0.00    +0.000 C 
ATOM     12  H   UNL     1      -4.733   1.262  -1.442  0.00  0.00    +0.000 HD
ENDBRANCH   5   9
ENDBRANCH   2   5
ENDBRANCH   1   2
BRANCH   1  13
ATOM     13  O   UNL     1      -0.615   2.880  -1.823  0.00  0.00    +0.000 OA
ATOM     14  H   UNL     1      -1.188   3.525  -1.337  0.00  0.00    +0.000 HD
ENDBRANCH   1  13
BRANCH   1  15
ATOM     15  C   UNL     1       0.136   0.589  -1.989  0.00  0.00    +0.000 C 
BRANCH  15  16
ATOM     16  O   UNL     1       0.085  -0.682  -1.337  0.00  0.00    +0.000 OA
ATOM     17  H   UNL     1      -0.849  -1.012  -1.328  0.00  0.00    +0.000 HD
ENDBRANCH  15  16
BRANCH  15  18
ATOM     18  C   UNL     1       1.578   1.098  -2.002  0.00  0.00    +0.000 C 
BRANCH  18  19
ATOM     19  O   UNL     1       2.009   1.343  -0.661  0.00  0.00    +0.000 OA
ATOM     20  H   UNL     1       1.961   0.504  -0.139  0.00  0.00    +0.000 HD
ENDBRANCH  18  19
BRANCH  18  21
ATOM     21  C   UNL     1       2.485   0.046  -2.644  0.00  0.00    +0.000 C 
BRANCH  21  22
ATOM     22  O   UNL     1       3.810   0.567  -2.762  0.00  0.00    +0.000 OA
ATOM     23  H   UNL     1       4.157   0.796  -1.864  0.00  0.00    +0.000 HD
ENDBRANCH  21  22
ENDBRANCH  18  21
ENDBRANCH  15  18
ENDBRANCH   1  15
TORSDOF 10
ENDMDL
MODEL      154
REMARK  Name = ZINC19751863
REMARK  9 active torsions:
REMARK  status: ('A' for Active; 'I' for Inactive)
REMARK    1  A    between atoms: C_1  and  O_2
REMARK    2  A    between atoms: O_2  and  C_3
REMARK    3  A    between atoms: C_8  and  O_9
REMARK    4  A    between atoms: O_9  and  C_10
REMARK    5  A    between atoms: N_11  and  C_17
REMARK    6  A    between atoms: C_12  and  C_14
REMARK    7  A    between atoms: C_14  and  C_15
REMARK    8  A    between atoms: C_15  and  N_16
REMARK    9  A    between atoms: C_17  and  C_18
REMARK                            x       y       z     vdW  Elec       q    Type
REMARK                         _______ _______ _______ _____ _____    ______ ____
ROOT
ATOM      1  C   UNL     1      -0.148   1.182   2.381  0.00  0.00    +0.000 A 
ATOM      2  C   UNL     1       0.988   0.401   2.416  0.00  0.00    +0.000 A 
ATOM      3  C   UNL     1       1.536   0.027   3.646  0.00  0.00    +0.000 A 
ATOM      4  C   UNL     1       0.923   0.450   4.837  0.00  0.00    +0.000 A 
ATOM      5  C   UNL     1      -0.221   1.236   4.789  0.00  0.00    +0.000 A 
ATOM      6  C   UNL     1      -0.751   1.604   3.567  0.00  0.00    +0.000 A 
ATOM      7  N   UNL     1       1.685  -0.072   5.865  0.00  0.00    +0.000 N 
ATOM      8  C   UNL     1       2.704  -0.773   5.297  0.00  0.00    +0.000 A 
ATOM      9  N   UNL     1       2.618  -0.716   4.000  0.00  0.00    +0.000 NA
ENDROOT
BRANCH   1  11
ATOM     10  C   UNL     1      -0.013   1.086   0.008  0.00  0.00    +0.000 C 
ATOM     11  O   UNL     1      -0.682   1.547   1.184  0.00  0.00    +0.000 OA
ENDBRANCH   1  11
BRANCH   6  12
ATOM     12  O   UNL     1      -1.869   2.379   3.520  0.00  0.00    +0.000 OA
ATOM     13  C   UNL     1      -2.435   2.776   4.770  0.00  0.00    +0.000 C 
ENDBRANCH   6  12
BRANCH   8  14
ATOM     14  C   UNL     1       3.776  -1.508   6.059  0.00  0.00    +0.000 C 
BRANCH  14  15
ATOM     15  C   UNL     1       4.956  -0.568   6.315  0.00  0.00    +0.000 C 
BRANCH  15  16
ATOM     16  N   UNL     1       6.001  -1.285   7.058  0.00  0.00    +0.000 N 
ATOM     17  H   UNL     1       6.322  -2.094   6.508  0.00  0.00    +0.000 HD
ATOM     18  H   UNL     1       5.621  -1.611   7.958  0.00  0.00    +0.000 HD
ATOM     19  H   UNL     1       6.795  -0.652   7.231  0.00  0.00    +0.000 HD
ENDBRANCH  15  16
ENDBRANCH  14  15
ENDBRANCH   8  14
BRANCH   7  20
ATOM     20  C   UNL     1       1.442   0.098   7.300  0.00  0.00    +0.000 C 
BRANCH  20  21
ATOM     21  C   UNL     1       2.163   1.327   7.790  0.00  0.00    +0.000 C 
ATOM     22  O   UNL     1       2.814   1.992   7.019  0.00  0.00    +0.000 OA
ATOM     23  O   UNL     1       2.083   1.682   9.082  0.00  0.00    +0.000 OA
ENDBRANCH  20  21
ENDBRANCH   7  20
TORSDOF 7
ENDMDL
MODEL      155
REMARK  Name = ZINC05176468
REMARK  5 active torsions:
REMARK  status: ('A' for Active; 'I' for Inactive)
REMARK    1  A    between atoms: C_1  and  C_2
REMARK    2  A    between atoms: C_5  and  N_8
REMARK    3  A    between atoms: C_13  and  C_18
REMARK    4  A    between atoms: C_18  and  O_19
REMARK    5  A    between atoms: O_19  and  C_20
REMARK                            x       y       z     vdW  Elec       q    Type
REMARK                         _______ _______ _______ _____ _____    ______ ____
ROOT
ATOM      1  N   UNL     1       1.060  -1.477   0.059  0.00  0.00    +0.000 N 
ATOM      2  C   UNL     1       2.132  -2.339   0.078  0.00  0.00    +0.000 C 
ATOM      3  N   UNL     1       1.983  -3.636  -0.369  0.00  0.00    +0.000 N 
ATOM      4  C   UNL     1       3.081  -4.453  -0.486  0.00  0.00    +0.000 A 
ATOM      5  N   UNL     1       2.910  -5.757  -0.827  0.00  0.00    +0.000 NA
ATOM      6  C   UNL     1       3.986  -6.587  -0.949  0.00  0.00    +0.000 A 
ATOM      7  C   UNL     1       5.226  -6.099  -0.727  0.00  0.00    +0.000 A 
ATOM      8  C   UNL     1       5.371  -4.733  -0.373  0.00  0.00    +0.000 A 
ATOM      9  O   UNL     1       6.480  -4.265  -0.168  0.00  0.00    +0.000 OA
ATOM     10  N   UNL     1       4.282  -3.958  -0.271  0.00  0.00    +0.000 NA
ATOM     11  N   UNL     1       3.282  -1.861   0.529  0.00  0.00    +0.000 N 
ATOM     12  H   UNL     1       0.125  -1.824  -0.198  0.00  0.00    +0.000 HD
ATOM     13  H   UNL     1       1.048  -3.992  -0.615  0.00  0.00    +0.000 HD
ATOM     14  H   UNL     1       3.382  -0.889   0.854  0.00  0.00    +0.000 HD
ATOM     15  H   UNL     1       4.099  -2.488   0.553  0.00  0.00    +0.000 HD
ENDROOT
BRANCH   1  20
ATOM     16  C   UNL     1       1.788   3.987   1.397  0.00  0.00    +0.000 C 
ATOM     17  C   UNL     1       1.595   2.536   1.042  0.00  0.00    +0.000 A 
ATOM     18  C   UNL     1       0.673   2.179   0.074  0.00  0.00    +0.000 A 
ATOM     19  C   UNL     1       0.494   0.850  -0.254  0.00  0.00    +0.000 A 
ATOM     20  C   UNL     1       1.240  -0.130   0.389  0.00  0.00    +0.000 A 
ATOM     21  C   UNL     1       2.164   0.232   1.360  0.00  0.00    +0.000 A 
ATOM     22  C   UNL     1       2.339   1.563   1.684  0.00  0.00    +0.000 A 
ENDBRANCH   1  20
BRANCH   6  23
ATOM     23  C   UNL     1       3.794  -8.033  -1.327  0.00  0.00    +0.000 C 
BRANCH  23  24
ATOM     24  O   UNL     1       5.066  -8.683  -1.389  0.00  0.00    +0.000 OA
ATOM     25  C   UNL     1       4.996 -10.066  -1.742  0.00  0.00    +0.000 C 
ENDBRANCH  23  24
ENDBRANCH   6  23
TORSDOF 3
ENDMDL
MODEL      156
REMARK  Name = ZINC01689632
REMARK  9 active torsions:
REMARK  status: ('A' for Active; 'I' for Inactive)
REMARK    1  A    between atoms: C_1  and  C_2
REMARK    2  A    between atoms: C_2  and  N_19
REMARK    3  A    between atoms: C_3  and  C_4
REMARK    4  A    between atoms: C_3  and  N_19
REMARK    5  A    between atoms: C_5  and  C_6
REMARK    6  A    between atoms: C_5  and  N_19
REMARK    7  A    between atoms: C_6  and  N_7
REMARK    8  A    between atoms: C_8  and  C_10
REMARK    9  A    between atoms: N_16  and  C_18
REMARK                            x       y       z     vdW  Elec       q    Type
REMARK                         _______ _______ _______ _____ _____    ______ ____
ROOT
ATOM      1  N   UNL     1      -2.298   5.265   0.054  0.00  0.00    +0.000 N 
ATOM      2  C   UNL     1      -2.364   3.919   0.034  0.00  0.00    +0.000 C 
ATOM      3  O   UNL     1      -3.445   3.363   0.020  0.00  0.00    +0.000 OA
ATOM      4  H   UNL     1      -1.382   5.736   0.066  0.00  0.00    +0.000 HD
ENDROOT
BRANCH   2   5
ATOM      5  C   UNL     1      -1.124   3.120   0.030  0.00  0.00    +0.000 A 
ATOM      6  C   UNL     1      -1.178   1.646   0.002  0.00  0.00    +0.000 A 
ATOM      7  O   UNL     1      -2.242   1.056  -0.018  0.00  0.00    +0.000 OA
ATOM      8  N   UNL     1      -0.004   0.973   0.003  0.00  0.00    +0.000 N 
ATOM      9  C   UNL     1       1.145   1.679   0.020  0.00  0.00    +0.000 A 
ATOM     10  O   UNL     1       2.208   1.088   0.017  0.00  0.00    +0.000 OA
ATOM     11  N   UNL     1       1.138   3.021   0.041  0.00  0.00    +0.000 N 
ATOM     12  N   UNL     1       0.052   3.708   0.045  0.00  0.00    +0.000 NA
ATOM     13  C   UNL     1       2.419   3.731   0.059  0.00  0.00    +0.000 C 
ATOM     14  H   UNL     1       0.012  -0.057  -0.008  0.00  0.00    +0.000 HD
ENDBRANCH   2   5
BRANCH   1  15
ATOM     15  C   UNL     1      -3.530   6.058   0.059  0.00  0.00    +0.000 C 
BRANCH  15  16
ATOM     16  C   UNL     1      -3.177   7.547   0.082  0.00  0.00    +0.000 C 
BRANCH  16  17
ATOM     17  N   UNL     1      -4.422   8.331  -0.057  0.00  0.00    +0.000 N 
ATOM     18  H   UNL     1      -5.018   7.889  -0.772  0.00  0.00    +0.000 HD
BRANCH  17  19
ATOM     19  C   UNL     1      -4.106   9.711  -0.482  0.00  0.00    +0.000 C 
ATOM     20  C   UNL     1      -3.785   9.702  -1.978  0.00  0.00    +0.000 C 
ENDBRANCH  17  19
BRANCH  17  22
ATOM     21  C   UNL     1      -6.532   8.973   1.001  0.00  0.00    +0.000 C 
ATOM     22  C   UNL     1      -5.152   8.353   1.228  0.00  0.00    +0.000 C 
ENDBRANCH  17  22
ENDBRANCH  16  17
ENDBRANCH  15  16
ENDBRANCH   1  15
TORSDOF 6
ENDMDL
MODEL      157
REMARK  Name = ZINC00347497
REMARK  6 active torsions:
REMARK  status: ('A' for Active; 'I' for Inactive)
REMARK    1  A    between atoms: C_3  and  O_10
REMARK    2  A    between atoms: C_6  and  N_7
REMARK    3  A    between atoms: O_10  and  C_11
REMARK    4  A    between atoms: C_11  and  C_12
REMARK    5  A    between atoms: C_12  and  N_13
REMARK    6  A    between atoms: C_16  and  C_19
REMARK                            x       y       z     vdW  Elec       q    Type
REMARK                         _______ _______ _______ _____ _____    ______ ____
ROOT
ATOM      1  C   UNL     1       2.341  -4.188  -0.042  0.00  0.00    +0.000 C 
ENDROOT
BRANCH   1   2
ATOM      2  N   UNL     1       3.656  -4.832  -0.058  0.00  0.00    +0.000 N 
ATOM      3  C   UNL     1       4.216  -5.112  -1.218  0.00  0.00    +0.000 A 
ATOM      4  C   UNL     1       5.457  -5.716  -1.280  0.00  0.00    +0.000 A 
ATOM      5  C   UNL     1       6.114  -6.038  -0.088  0.00  0.00    +0.000 A 
ATOM      6  C   UNL     1       5.481  -5.727   1.119  0.00  0.00    +0.000 A 
ATOM      7  C   UNL     1       4.241  -5.119   1.088  0.00  0.00    +0.000 A 
BRANCH   5   8
ATOM      8  C   UNL     1       7.444  -6.690  -0.104  0.00  0.00    +0.000 C 
ATOM      9  O   UNL     1       8.000  -6.962   0.941  0.00  0.00    +0.000 OA
ATOM     10  N   UNL     1       8.038  -6.981  -1.279  0.00  0.00    +0.000 N 
ATOM     11  H   UNL     1       7.566  -6.750  -2.165  0.00  0.00    +0.000 HD
ATOM     12  H   UNL     1       8.962  -7.434  -1.290  0.00  0.00    +0.000 HD
ENDBRANCH   5   8
ENDBRANCH   1   2
BRANCH   1  13
ATOM     13  C   UNL     1       2.518  -2.668  -0.036  0.00  0.00    +0.000 C 
BRANCH  13  14
ATOM     14  O   UNL     1       1.234  -2.039  -0.020  0.00  0.00    +0.000 OA
BRANCH  14  17
ATOM     15  C   UNL     1      -0.017   1.377   0.010  0.00  0.00    +0.000 A 
ATOM     16  C   UNL     1       0.002  -0.004   0.002  0.00  0.00    +0.000 A 
ATOM     17  C   UNL     1       1.213  -0.680  -0.013  0.00  0.00    +0.000 A 
ATOM     18  C   UNL     1       2.403   0.033  -0.021  0.00  0.00    +0.000 A 
ATOM     19  C   UNL     1       2.379   1.415  -0.013  0.00  0.00    +0.000 A 
ATOM     20  C   UNL     1       1.171   2.086   0.002  0.00  0.00    +0.000 A 
BRANCH  20  21
ATOM     21  N   UNL     1       1.148   3.566   0.010  0.00  0.00    +0.000 N 
ATOM     22  O   UNL     1       0.084   4.158   0.023  0.00  0.00    +0.000 OA
ATOM     23  O   UNL     1       2.193   4.191   0.003  0.00  0.00    +0.000 OA
ENDBRANCH  20  21
ENDBRANCH  14  17
ENDBRANCH  13  14
ENDBRANCH   1  13
TORSDOF 6
ENDMDL
MODEL      158
REMARK  Name = ZINC05996380
REMARK  7 active torsions:
REMARK  status: ('A' for Active; 'I' for Inactive)
REMARK    1  A    between atoms: C_1  and  N_15
REMARK    2  A    between atoms: C_2  and  C_3
REMARK    3  A    between atoms: C_2  and  N_15
REMARK    4  A    between atoms: C_3  and  C_4
REMARK    5  A    between atoms: C_7  and  O_11
REMARK    6  A    between atoms: C_8  and  O_10
REMARK    7  A    between atoms: O_11  and  S_12
REMARK                            x       y       z     vdW  Elec       q    Type
REMARK                         _______ _______ _______ _____ _____    ______ ____
ROOT
ATOM      1  C   UNL     1       0.016   4.626   3.671  0.00  0.00    +0.000 A 
ATOM      2  C   UNL     1       1.359   4.522   3.356  0.00  0.00    +0.000 A 
ATOM      3  C   UNL     1       1.747   4.015   2.130  0.00  0.00    +0.000 A 
ATOM      4  C   UNL     1       0.790   3.609   1.214  0.00  0.00    +0.000 A 
ATOM      5  C   UNL     1      -0.561   3.718   1.529  0.00  0.00    +0.000 A 
ATOM      6  C   UNL     1      -0.943   4.223   2.762  0.00  0.00    +0.000 A 
ENDROOT
BRANCH   5   7
ATOM      7  O   UNL     1      -1.504   3.326   0.631  0.00  0.00    +0.000 OA
ATOM      8  H   UNL     1      -1.286   2.382   0.429  0.00  0.00    +0.000 HD
ENDBRANCH   5   7
BRANCH   1   9
ATOM      9  C   UNL     1      -0.401   5.179   5.009  0.00  0.00    +0.000 C 
BRANCH   9  10
ATOM     10  C   UNL     1      -0.571   6.696   4.903  0.00  0.00    +0.000 C 
BRANCH  10  12
ATOM     11  C   UNL     1      -1.151   8.693   6.144  0.00  0.00    +0.000 C 
ATOM     12  N   UNL     1      -0.980   7.230   6.216  0.00  0.00    +0.000 N 
ATOM     13  H   UNL     1      -0.257   7.005   6.915  0.00  0.00    +0.000 HD
ATOM     14  H   UNL     1      -1.869   6.794   6.499  0.00  0.00    +0.000 HD
ENDBRANCH  10  12
ENDBRANCH   9  10
ENDBRANCH   1   9
BRANCH   4  15
ATOM     15  O   UNL     1       1.170   3.109   0.008  0.00  0.00    +0.000 OA
BRANCH  15  16
ATOM     16  S   UNL     1       1.371   1.601  -0.002  0.00  0.00    +0.000 S 
ATOM     17  O   UNL     1       1.982   1.264   1.235  0.00  0.00    +0.000 OA
ATOM     18  O   UNL     1       1.958   1.278  -1.255  0.00  0.00    +0.000 OA
ATOM     19  O   UNL     1      -0.011   0.963   0.007  0.00  0.00    +0.000 OA
ENDBRANCH  15  16
ENDBRANCH   4  15
TORSDOF 6
ENDMDL
MODEL      159
REMARK  Name = ZINC05132027
REMARK  10 active torsions:
REMARK  status: ('A' for Active; 'I' for Inactive)
REMARK    1  A    between atoms: C_1  and  C_2
REMARK    2  A    between atoms: C_1  and  N_12
REMARK    3  A    between atoms: C_2  and  C_3
REMARK    4  A    between atoms: C_2  and  O_11
REMARK    5  A    between atoms: C_3  and  C_4
REMARK    6  A    between atoms: C_3  and  O_10
REMARK    7  A    between atoms: C_4  and  C_5
REMARK    8  A    between atoms: C_4  and  O_9
REMARK    9  A    between atoms: C_5  and  C_6
REMARK   10  A    between atoms: C_5  and  O_8
REMARK                            x       y       z     vdW  Elec       q    Type
REMARK                         _______ _______ _______ _____ _____    ______ ____
ROOT
ATOM      1  C   UNL     1      -0.753   1.593  -1.232  0.00  0.00    +0.000 C 
ENDROOT
BRANCH   1   2
ATOM      2  O   UNL     1      -0.084   1.132  -2.407  0.00  0.00    +0.000 OA
ATOM      3  H   UNL     1      -0.070   0.142  -2.414  0.00  0.00    +0.000 HD
ENDBRANCH   1   2
BRANCH   1   4
ATOM      4  C   UNL     1      -0.013   1.086   0.008  0.00  0.00    +0.000 C 
BRANCH   4   5
ATOM      5  O   UNL     1      -0.682   1.547   1.184  0.00  0.00    +0.000 OA
ATOM      6  H   UNL     1      -0.696   2.537   1.190  0.00  0.00    +0.000 HD
ENDBRANCH   4   5
BRANCH   4   7
ATOM      7  C   UNL     1       1.423   1.615  -0.003  0.00  0.00    +0.000 C 
BRANCH   7   8
ATOM      8  N   UNL     1       2.166   1.035   1.118  0.00  0.00    +0.000 NA
ATOM      9  N   UNL     1       3.082   0.414   0.924  0.00  0.00    +0.000 NA
ATOM     10  N   UNL     1       3.999  -0.207   0.730  0.00  0.00    +0.000 NA
ENDBRANCH   7   8
ENDBRANCH   4   7
ENDBRANCH   1   4
BRANCH   1  11
ATOM     11  C   UNL     1      -2.188   1.063  -1.221  0.00  0.00    +0.000 C 
BRANCH  11  12
ATOM     12  O   UNL     1      -2.169  -0.362  -1.111  0.00  0.00    +0.000 OA
ATOM     13  H   UNL     1      -1.716  -0.623  -0.271  0.00  0.00    +0.000 HD
ENDBRANCH  11  12
BRANCH  11  14
ATOM     14  C   UNL     1      -2.890   1.466  -2.519  0.00  0.00    +0.000 C 
BRANCH  14  15
ATOM     15  C   UNL     1      -4.261   0.841  -2.563  0.00  0.00    +0.000 C 
ATOM     16  O   UNL     1      -4.551   0.085  -3.459  0.00  0.00    +0.000 OA
ENDBRANCH  14  15
BRANCH  14  17
ATOM     17  O   UNL     1      -2.123   1.010  -3.636  0.00  0.00    +0.000 OA
ATOM     18  H   UNL     1      -2.038   0.025  -3.599  0.00  0.00    +0.000 HD
ENDBRANCH  14  17
ENDBRANCH  11  14
ENDBRANCH   1  11
TORSDOF 10
ENDMDL
MODEL      160
REMARK  Name = ZINC02375827
REMARK  9 active torsions:
REMARK  status: ('A' for Active; 'I' for Inactive)
REMARK    1  A    between atoms: C_1  and  C_2
REMARK    2  A    between atoms: C_3  and  C_10
REMARK    3  A    between atoms: N_11  and  N_12
REMARK    4  A    between atoms: C_13  and  C_15
REMARK    5  A    between atoms: C_15  and  C_16
REMARK    6  A    between atoms: C_15  and  N_20
REMARK    7  A    between atoms: C_16  and  C_17
REMARK    8  A    between atoms: C_17  and  S_18
REMARK    9  A    between atoms: S_18  and  C_19
REMARK                            x       y       z     vdW  Elec       q    Type
REMARK                         _______ _______ _______ _____ _____    ______ ____
ROOT
ATOM      1  C   UNL     1      -0.037  -2.056   4.343  0.00  0.00    +0.000 C 
ATOM      2  N   UNL     1       0.244  -0.839   3.987  0.00  0.00    +0.000 NA
ENDROOT
BRANCH   1   5
ATOM      3  C   UNL     1      -0.658  -4.757   5.140  0.00  0.00    +0.000 C 
ATOM      4  C   UNL     1       0.320  -3.921   5.925  0.00  0.00    +0.000 A 
ATOM      5  C   UNL     1       0.603  -2.641   5.533  0.00  0.00    +0.000 A 
ATOM      6  C   UNL     1       1.568  -1.866   6.329  0.00  0.00    +0.000 A 
ATOM      7  O   UNL     1       1.856  -0.726   6.018  0.00  0.00    +0.000 OA
ATOM      8  N   UNL     1       2.124  -2.446   7.414  0.00  0.00    +0.000 N 
ATOM      9  C   UNL     1       1.805  -3.709   7.748  0.00  0.00    +0.000 A 
ATOM     10  O   UNL     1       2.324  -4.209   8.727  0.00  0.00    +0.000 OA
ATOM     11  N   UNL     1       0.930  -4.433   7.032  0.00  0.00    +0.000 N 
ATOM     12  H   UNL     1       2.796  -1.918   7.989  0.00  0.00    +0.000 HD
ATOM     13  H   UNL     1       0.716  -5.397   7.325  0.00  0.00    +0.000 HD
ENDBRANCH   1   5
BRANCH   2  14
ATOM     14  N   UNL     1      -0.365  -0.282   2.855  0.00  0.00    +0.000 N 
ATOM     15  C   UNL     1      -0.074   0.981   2.485  0.00  0.00    +0.000 C 
ATOM     16  O   UNL     1       0.716   1.635   3.132  0.00  0.00    +0.000 OA
ATOM     17  H   UNL     1      -1.036  -0.838   2.305  0.00  0.00    +0.000 HD
BRANCH  15  18
ATOM     18  C   UNL     1      -0.729   1.579   1.267  0.00  0.00    +0.000 C 
BRANCH  18  19
ATOM     19  N   UNL     1      -0.656   3.048   1.358  0.00  0.00    +0.000 N 
ATOM     20  H   UNL     1       0.329   3.346   1.398  0.00  0.00    +0.000 HD
ATOM     21  H   UNL     1      -1.149   3.369   2.204  0.00  0.00    +0.000 HD
ATOM     22  H   UNL     1      -1.103   3.463   0.527  0.00  0.00    +0.000 HD
ENDBRANCH  18  19
BRANCH  18  23
ATOM     23  C   UNL     1      -0.013   1.086   0.008  0.00  0.00    +0.000 C 
BRANCH  23  24
ATOM     24  C   UNL     1      -0.753   1.593  -1.232  0.00  0.00    +0.000 C 
BRANCH  24  25
ATOM     25  S   UNL     1       0.096   1.008  -2.724  0.00  0.00    +0.000 S 
ATOM     26  C   UNL     1      -0.892   1.685  -4.085  0.00  0.00    +0.000 C 
ENDBRANCH  24  25
ENDBRANCH  23  24
ENDBRANCH  18  23
ENDBRANCH  15  18
ENDBRANCH   2  14
TORSDOF 7
ENDMDL
MODEL      161
REMARK  Name = ZINC31820564
REMARK  8 active torsions:
REMARK  status: ('A' for Active; 'I' for Inactive)
REMARK    1  A    between atoms: C_1  and  C_2
REMARK    2  A    between atoms: C_2  and  O_3
REMARK    3  A    between atoms: O_3  and  N_4
REMARK    4  A    between atoms: N_4  and  C_5
REMARK    5  A    between atoms: C_5  and  C_7
REMARK    6  A    between atoms: C_7  and  S_8
REMARK    7  A    between atoms: S_8  and  C_9
REMARK    8  A    between atoms: C_13  and  N_15
REMARK                            x       y       z     vdW  Elec       q    Type
REMARK                         _______ _______ _______ _____ _____    ______ ____
ROOT
ATOM      1  C   UNL     1      -1.383  -2.364   0.003  0.00  0.00    +0.000 A 
ATOM      2  N   UNL     1      -0.129  -2.793  -0.017  0.00  0.00    +0.000 N 
ATOM      3  C   UNL     1       0.146  -4.096  -0.021  0.00  0.00    +0.000 A 
ATOM      4  C   UNL     1      -0.904  -5.010  -0.016  0.00  0.00    +0.000 A 
ATOM      5  C   UNL     1      -2.208  -4.521  -0.001  0.00  0.00    +0.000 A 
ATOM      6  N   UNL     1      -2.406  -3.205   0.008  0.00  0.00    +0.000 NA
ATOM      7  N   UNL     1       1.460  -4.536  -0.036  0.00  0.00    +0.000 N 
ATOM      8  H   UNL     1       0.642  -2.111  -0.029  0.00  0.00    +0.000 HD
ATOM      9  H   UNL     1       2.228  -3.850  -0.043  0.00  0.00    +0.000 HD
ATOM     10  H   UNL     1       1.668  -5.545  -0.039  0.00  0.00    +0.000 HD
ENDROOT
BRANCH   5  11
ATOM     11  N   UNL     1      -3.284  -5.394   0.005  0.00  0.00    +0.000 N 
ATOM     12  H   UNL     1      -3.117  -6.411  -0.002  0.00  0.00    +0.000 HD
ATOM     13  H   UNL     1      -4.248  -5.029   0.016  0.00  0.00    +0.000 HD
ENDBRANCH   5  11
BRANCH   1  14
ATOM     14  S   UNL     1      -1.696  -0.631   0.015  0.00  0.00    +0.000 S 
BRANCH  14  15
ATOM     15  C   UNL     1       0.002  -0.004   0.002  0.00  0.00    +0.000 C 
BRANCH  15  16
ATOM     16  C   UNL     1      -0.018   1.503   0.010  0.00  0.00    +0.000 C 
ATOM     17  O   UNL     1      -1.077   2.095   0.018  0.00  0.00    +0.000 OA
BRANCH  16  18
ATOM     18  N   UNL     1       1.139   2.192   0.003  0.00  0.00    +0.000 NA
BRANCH  18  19
ATOM     19  O   UNL     1       1.120   3.608   0.011  0.00  0.00    +0.000 OA
BRANCH  19  21
ATOM     20  C   UNL     1       2.276   5.731   0.011  0.00  0.00    +0.000 C 
ATOM     21  C   UNL     1       2.418   4.207   0.002  0.00  0.00    +0.000 C 
ENDBRANCH  19  21
ENDBRANCH  18  19
ENDBRANCH  16  18
ENDBRANCH  15  16
ENDBRANCH  14  15
ENDBRANCH   1  14
TORSDOF 7
ENDMDL
MODEL      162
REMARK  Name = ZINC19681075
REMARK  8 active torsions:
REMARK  status: ('A' for Active; 'I' for Inactive)
REMARK    1  A    between atoms: C_1  and  C_2
REMARK    2  A    between atoms: C_3  and  S_8
REMARK    3  A    between atoms: C_4  and  C_7
REMARK    4  A    between atoms: S_8  and  N_11
REMARK    5  A    between atoms: N_11  and  C_12
REMARK    6  A    between atoms: C_12  and  C_13
REMARK    7  A    between atoms: C_13  and  C_14
REMARK    8  A    between atoms: C_14  and  N_15
REMARK                            x       y       z     vdW  Elec       q    Type
REMARK                         _______ _______ _______ _____ _____    ______ ____
ROOT
ATOM      1  N   UNL     1      -0.011   0.966   0.007  0.00  0.00    +0.000 NA
ATOM      2  H   UNL     1       0.003  -0.064   0.006  0.00  0.00    +0.000 HD
ENDROOT
BRANCH   1   3
ATOM      3  S   UNL     1      -1.456   1.774   0.019  0.00  0.00    +0.000 S 
ATOM      4  O   UNL     1      -2.475   0.784  -0.009  0.00  0.00    +0.000 OA
ATOM      5  O   UNL     1      -1.369   2.749   1.049  0.00  0.00    +0.000 OA
BRANCH   3   8
ATOM      6  C   UNL     1      -2.716   0.831  -2.865  0.00  0.00    +0.000 C 
ATOM      7  C   UNL     1      -2.109   2.194  -2.653  0.00  0.00    +0.000 A 
ATOM      8  C   UNL     1      -1.571   2.658  -1.502  0.00  0.00    +0.000 A 
ATOM      9  C   UNL     1      -1.127   3.964  -1.730  0.00  0.00    +0.000 A 
ATOM     10  N   UNL     1      -1.381   4.271  -2.976  0.00  0.00    +0.000 NA
ATOM     11  N   UNL     1      -2.004   3.170  -3.579  0.00  0.00    +0.000 N 
ATOM     12  C   UNL     1      -0.467   4.863  -0.716  0.00  0.00    +0.000 C 
ATOM     13  H   UNL     1      -2.325   3.116  -4.556  0.00  0.00    +0.000 HD
ENDBRANCH   3   8
ENDBRANCH   1   3
BRANCH   1  14
ATOM     14  C   UNL     1       1.248   1.716  -0.001  0.00  0.00    +0.000 C 
BRANCH  14  15
ATOM     15  C   UNL     1       2.402   0.777   0.357  0.00  0.00    +0.000 C 
BRANCH  15  16
ATOM     16  C   UNL     1       3.717   1.560   0.348  0.00  0.00    +0.000 C 
BRANCH  16  17
ATOM     17  N   UNL     1       4.825   0.660   0.691  0.00  0.00    +0.000 NA
ATOM     18  C   UNL     1       4.733  -0.600  -0.061  0.00  0.00    +0.000 C 
ATOM     19  C   UNL     1       5.857  -1.539   0.383  0.00  0.00    +0.000 C 
ATOM     20  N   UNL     1       7.154  -0.887   0.155  0.00  0.00    +0.000 N 
ATOM     21  C   UNL     1       7.247   0.372   0.907  0.00  0.00    +0.000 C 
ATOM     22  C   UNL     1       6.123   1.311   0.464  0.00  0.00    +0.000 C 
ATOM     23  H   UNL     1       7.910  -1.519   0.457  0.00  0.00    +0.000 HD
ATOM     24  H   UNL     1       7.266  -0.691  -0.850  0.00  0.00    +0.000 HD
ENDBRANCH  16  17
ENDBRANCH  15  16
ENDBRANCH  14  15
ENDBRANCH   1  14
TORSDOF 6
ENDMDL
MODEL      163
REMARK  Name = ZINC32061449
REMARK  7 active torsions:
REMARK  status: ('A' for Active; 'I' for Inactive)
REMARK    1  A    between atoms: C_1  and  C_2
REMARK    2  A    between atoms: C_2  and  O_3
REMARK    3  A    between atoms: O_3  and  C_4
REMARK    4  A    between atoms: C_7  and  N_10
REMARK    5  A    between atoms: N_11  and  C_12
REMARK    6  A    between atoms: C_15  and  N_21
REMARK    7  A    between atoms: C_16  and  C_18
REMARK                            x       y       z     vdW  Elec       q    Type
REMARK                         _______ _______ _______ _____ _____    ______ ____
ROOT
ATOM      1  C   UNL     1       3.539   1.732   0.857  0.00  0.00    +0.000 C 
ATOM      2  C   UNL     1       4.255   1.239  -0.402  0.00  0.00    +0.000 C 
ATOM      3  C   UNL     1       4.276  -0.291  -0.410  0.00  0.00    +0.000 C 
ATOM      4  C   UNL     1       5.016  -0.798   0.830  0.00  0.00    +0.000 C 
ATOM      5  C   UNL     1       4.300  -0.305   2.088  0.00  0.00    +0.000 C 
ATOM      6  C   UNL     1       4.279   1.225   2.097  0.00  0.00    +0.000 C 
ENDROOT
BRANCH   4   7
ATOM      7  N   UNL     1       5.036  -2.267   0.822  0.00  0.00    +0.000 N 
ATOM      8  H   UNL     1       5.518  -2.600  -0.025  0.00  0.00    +0.000 HD
ATOM      9  H   UNL     1       4.070  -2.624   0.829  0.00  0.00    +0.000 HD
ATOM     10  H   UNL     1       5.534  -2.609   1.656  0.00  0.00    +0.000 HD
ENDBRANCH   4   7
BRANCH   5  11
ATOM     11  C   UNL     1       5.029  -0.804   3.309  0.00  0.00    +0.000 C 
ATOM     12  O   UNL     1       6.019  -1.484   3.185  0.00  0.00    +0.000 OA
ATOM     13  O   UNL     1       4.578  -0.492   4.535  0.00  0.00    +0.000 OA
ENDBRANCH   5  11
BRANCH   1  15
ATOM     14  N   UNL     1       1.362   1.593  -0.002  0.00  0.00    +0.000 NA
ATOM     15  N   UNL     1       2.165   1.225   0.868  0.00  0.00    +0.000 NA
BRANCH  14  19
ATOM     16  C   UNL     1      -2.904   1.556   0.038  0.00  0.00    +0.000 C 
ATOM     17  C   UNL     1      -2.188   1.063  -1.221  0.00  0.00    +0.000 C 
ATOM     18  C   UNL     1      -0.753   1.593  -1.232  0.00  0.00    +0.000 C 
ATOM     19  C   UNL     1      -0.013   1.086   0.008  0.00  0.00    +0.000 C 
ATOM     20  C   UNL     1      -0.729   1.579   1.267  0.00  0.00    +0.000 C 
ATOM     21  C   UNL     1      -2.164   1.050   1.278  0.00  0.00    +0.000 C 
BRANCH  16  22
ATOM     22  O   UNL     1      -4.245   1.062   0.048  0.00  0.00    +0.000 OA
BRANCH  22  24
ATOM     23  C   UNL     1      -6.570   1.292   0.664  0.00  0.00    +0.000 C 
ATOM     24  C   UNL     1      -5.175   1.918   0.715  0.00  0.00    +0.000 C 
ENDBRANCH  22  24
ENDBRANCH  16  22
ENDBRANCH  14  19
ENDBRANCH   1  15
TORSDOF 6
ENDMDL
MODEL      164
REMARK  Name = ZINC05413411
REMARK  5 active torsions:
REMARK  status: ('A' for Active; 'I' for Inactive)
REMARK    1  A    between atoms: C_5  and  C_8
REMARK    2  A    between atoms: C_8  and  N_17
REMARK    3  A    between atoms: C_9  and  C_10
REMARK    4  A    between atoms: C_10  and  S_11
REMARK    5  A    between atoms: S_11  and  S_12
REMARK                            x       y       z     vdW  Elec       q    Type
REMARK                         _______ _______ _______ _____ _____    ______ ____
ROOT
ATOM      1  C   UNL     1       0.687  -0.688   1.424  0.00  0.00    +0.000 C 
ATOM      2  N   UNL     1       1.194  -1.913   1.768  0.00  0.00    +0.000 N 
ATOM      3  N   UNL     1       0.731   0.361   2.239  0.00  0.00    +0.000 N 
ATOM      4  H   UNL     1       1.143  -2.697   1.102  0.00  0.00    +0.000 HD
ATOM      5  H   UNL     1       1.626  -2.051   2.693  0.00  0.00    +0.000 HD
ATOM      6  H   UNL     1       0.439   1.288   1.900  0.00  0.00    +0.000 HD
ENDROOT
BRANCH   3   7
ATOM      7  C   UNL     1       1.208   0.193   3.654  0.00  0.00    +0.000 C 
BRANCH   7  12
ATOM      8  C   UNL     1       5.832   1.258   3.726  0.00  0.00    +0.000 C 
ATOM      9  C   UNL     1       5.338   1.006   5.164  0.00  0.00    +0.000 C 
ATOM     10  C   UNL     1       4.132   1.835   5.513  0.00  0.00    +0.000 C 
ATOM     11  C   UNL     1       2.866   0.999   5.237  0.00  0.00    +0.000 C 
ATOM     12  C   UNL     1       2.506   0.985   3.827  0.00  0.00    +0.000 C 
ATOM     13  C   UNL     1       3.601   0.347   2.948  0.00  0.00    +0.000 C 
ATOM     14  C   UNL     1       4.679   1.371   2.710  0.00  0.00    +0.000 C 
ENDBRANCH   7  12
ENDBRANCH   3   7
BRANCH   1  15
ATOM     15  C   UNL     1       0.055  -0.486   0.071  0.00  0.00    +0.000 C 
BRANCH  15  16
ATOM     16  S   UNL     1      -0.515   1.229  -0.081  0.00  0.00    +0.000 S 
BRANCH  16  17
ATOM     17  S   UNL     1       1.218   2.319  -0.198  0.00  0.00    +0.000 S 
ATOM     18  O   UNL     1       0.844   3.687  -0.109  0.00  0.00    +0.000 OA
ATOM     19  O   UNL     1       2.136   1.720   0.706  0.00  0.00    +0.000 OA
ATOM     20  O   UNL     1       1.786   2.113  -1.595  0.00  0.00    +0.000 OA
ENDBRANCH  16  17
ENDBRANCH  15  16
ENDBRANCH   1  15
TORSDOF 5
ENDMDL
MODEL      165
REMARK  Name = ZINC31576232
REMARK  8 active torsions:
REMARK  status: ('A' for Active; 'I' for Inactive)
REMARK    1  A    between atoms: C_1  and  N_2
REMARK    2  A    between atoms: N_2  and  C_3
REMARK    3  A    between atoms: N_2  and  C_4
REMARK    4  A    between atoms: C_4  and  C_5
REMARK    5  A    between atoms: C_5  and  C_6
REMARK    6  A    between atoms: C_5  and  O_17
REMARK    7  A    between atoms: C_6  and  N_7
REMARK    8  A    between atoms: C_11  and  N_14
REMARK                            x       y       z     vdW  Elec       q    Type
REMARK                         _______ _______ _______ _____ _____    ______ ____
ROOT
ATOM      1  N   UNL     1      -4.876   4.013  -0.412  0.00  0.00    +0.000 N 
ATOM      2  C   UNL     1      -3.696   3.280  -0.476  0.00  0.00    +0.000 A 
ATOM      3  C   UNL     1      -3.729   1.902  -0.290  0.00  0.00    +0.000 A 
ATOM      4  C   UNL     1      -2.548   1.186  -0.356  0.00  0.00    +0.000 A 
ATOM      5  C   UNL     1      -1.369   1.874  -0.608  0.00  0.00    +0.000 A 
ATOM      6  C   UNL     1      -1.408   3.243  -0.778  0.00  0.00    +0.000 A 
ATOM      7  N   UNL     1      -2.551   3.901  -0.714  0.00  0.00    +0.000 NA
ATOM      8  H   UNL     1      -4.856   5.033  -0.549  0.00  0.00    +0.000 HD
ENDROOT
BRANCH   5   9
ATOM      9  N   UNL     1      -0.081   1.148  -0.687  0.00  0.00    +0.000 N 
ATOM     10  O   UNL     1      -0.053  -0.059  -0.531  0.00  0.00    +0.000 OA
ATOM     11  O   UNL     1       0.949   1.758  -0.913  0.00  0.00    +0.000 OA
ENDBRANCH   5   9
BRANCH   1  12
ATOM     12  C   UNL     1      -6.146   3.333  -0.148  0.00  0.00    +0.000 C 
BRANCH  12  13
ATOM     13  C   UNL     1      -7.280   4.360  -0.129  0.00  0.00    +0.000 C 
BRANCH  13  14
ATOM     14  O   UNL     1      -7.422   4.937  -1.429  0.00  0.00    +0.000 OA
ATOM     15  H   UNL     1      -8.155   5.602  -1.417  0.00  0.00    +0.000 HD
ENDBRANCH  13  14
BRANCH  13  16
ATOM     16  C   UNL     1      -8.587   3.671   0.269  0.00  0.00    +0.000 C 
BRANCH  16  18
ATOM     17  C   UNL     1     -10.983   4.011   0.331  0.00  0.00    +0.000 C 
ATOM     18  N   UNL     1      -9.667   4.664   0.324  0.00  0.00    +0.000 N 
ATOM     19  C   UNL     1      -9.512   5.547   1.488  0.00  0.00    +0.000 C 
ATOM     20  H   UNL     1      -9.607   5.245  -0.524  0.00  0.00    +0.000 HD
ENDBRANCH  16  18
ENDBRANCH  13  16
ENDBRANCH  12  13
ENDBRANCH   1  12
TORSDOF 6
ENDMDL
MODEL      166
REMARK  Name = ZINC01558895
REMARK  10 active torsions:
REMARK  status: ('A' for Active; 'I' for Inactive)
REMARK    1  A    between atoms: C_1  and  C_2
REMARK    2  A    between atoms: C_2  and  N_19
REMARK    3  A    between atoms: C_3  and  C_4
REMARK    4  A    between atoms: C_3  and  N_19
REMARK    5  A    between atoms: C_5  and  C_6
REMARK    6  A    between atoms: C_5  and  N_19
REMARK    7  A    between atoms: C_6  and  N_7
REMARK    8  A    between atoms: C_9  and  C_18
REMARK    9  A    between atoms: C_11  and  C_16
REMARK   10  A    between atoms: C_12  and  N_15
REMARK                            x       y       z     vdW  Elec       q    Type
REMARK                         _______ _______ _______ _____ _____    ______ ____
ROOT
ATOM      1  N   UNL     1       0.002   1.385  -0.017  0.00  0.00    +0.000 N 
ATOM      2  C   UNL     1      -0.039  -0.003  -0.014  0.00  0.00    +0.000 A 
ATOM      3  C   UNL     1      -1.263  -0.663   0.106  0.00  0.00    +0.000 A 
ATOM      4  N   UNL     1      -1.309  -1.979   0.104  0.00  0.00    +0.000 NA
ATOM      5  C   UNL     1      -0.184  -2.687  -0.001  0.00  0.00    +0.000 A 
ATOM      6  C   UNL     1       1.049  -2.025  -0.116  0.00  0.00    +0.000 A 
ATOM      7  N   UNL     1       1.087  -0.698  -0.119  0.00  0.00    +0.000 N 
ATOM      8  O   UNL     1       2.328  -0.025  -0.235  0.00  0.00    +0.000 OA
ATOM      9  C   UNL     1      -2.536   0.133   0.231  0.00  0.00    +0.000 C 
ATOM     10  H   UNL     1      -0.829   1.992  -0.042  0.00  0.00    +0.000 HD
ENDROOT
BRANCH   6  11
ATOM     11  N   UNL     1       2.222  -2.756  -0.225  0.00  0.00    +0.000 N 
ATOM     12  H   UNL     1       2.189  -3.785  -0.222  0.00  0.00    +0.000 HD
ATOM     13  H   UNL     1       3.126  -2.270  -0.310  0.00  0.00    +0.000 HD
ENDBRANCH   6  11
BRANCH   5  14
ATOM     14  C   UNL     1      -0.234  -4.118   0.003  0.00  0.00    +0.000 C 
ATOM     15  N   UNL     1      -0.274  -5.253   0.005  0.00  0.00    +0.000 NA
ENDBRANCH   5  14
BRANCH   1  16
ATOM     16  C   UNL     1       1.387   1.871   0.020  0.00  0.00    +0.000 C 
BRANCH  16  17
ATOM     17  C   UNL     1       1.390   3.395   0.155  0.00  0.00    +0.000 C 
BRANCH  17  18
ATOM     18  N   UNL     1       2.789   3.867   0.212  0.00  0.00    +0.000 N 
ATOM     19  H   UNL     1       3.292   3.336   0.939  0.00  0.00    +0.000 HD
BRANCH  18  21
ATOM     20  C   UNL     1       2.777   4.473  -2.184  0.00  0.00    +0.000 C 
ATOM     21  C   UNL     1       3.452   3.643  -1.090  0.00  0.00    +0.000 C 
ENDBRANCH  18  21
BRANCH  18  22
ATOM     22  C   UNL     1       2.825   5.304   0.557  0.00  0.00    +0.000 C 
ATOM     23  C   UNL     1       4.255   5.680   0.950  0.00  0.00    +0.000 C 
ENDBRANCH  18  22
ENDBRANCH  17  18
ENDBRANCH  16  17
ENDBRANCH   1  16
TORSDOF 7
ENDMDL
MODEL      167
REMARK  Name = ZINC03121134
REMARK  9 active torsions:
REMARK  status: ('A' for Active; 'I' for Inactive)
REMARK    1  A    between atoms: C_1  and  O_2
REMARK    2  A    between atoms: O_2  and  C_3
REMARK    3  A    between atoms: C_3  and  N_5
REMARK    4  A    between atoms: N_5  and  P_6
REMARK    5  A    between atoms: P_6  and  N_8
REMARK    6  A    between atoms: P_6  and  O_16
REMARK    7  A    between atoms: N_8  and  N_9
REMARK    8  A    between atoms: N_9  and  C_10
REMARK    9  A    between atoms: O_16  and  C_17
REMARK                            x       y       z     vdW  Elec       q    Type
REMARK                         _______ _______ _______ _____ _____    ______ ____
ROOT
ATOM      1  N   UNL     1       4.789   0.048  -0.146  0.00  0.00    +0.000 NA
ATOM      2  H   UNL     1       4.974   0.767  -0.860  0.00  0.00    +0.000 HD
ENDROOT
BRANCH   1   3
ATOM      3  P   UNL     1       5.887  -0.424   1.039  0.00  0.00    +0.000 P 
ATOM      4  O   UNL     1       5.308  -0.171   2.377  0.00  0.00    +0.000 OA
BRANCH   3   5
ATOM      5  O   UNL     1       6.205  -1.994   0.880  0.00  0.00    +0.000 OA
ATOM      6  C   UNL     1       7.314  -2.632   1.518  0.00  0.00    +0.000 C 
ENDBRANCH   3   5
BRANCH   3   7
ATOM      7  N   UNL     1       7.274   0.434   0.872  0.00  0.00    +0.000 NA
BRANCH   7   8
ATOM      8  C   UNL     1       8.303   0.224   1.717  0.00  0.00    +0.000 C 
ATOM      9  O   UNL     1       8.203  -0.602   2.602  0.00  0.00    +0.000 OA
BRANCH   8  11
ATOM     10  C   UNL     1      10.508   0.649   2.525  0.00  0.00    +0.000 C 
ATOM     11  O   UNL     1       9.442   0.928   1.579  0.00  0.00    +0.000 OA
ENDBRANCH   8  11
ENDBRANCH   7   8
ENDBRANCH   3   7
ENDBRANCH   1   3
BRANCH   1  12
ATOM     12  N   UNL     1       3.620  -0.649  -0.036  0.00  0.00    +0.000 N 
ATOM     13  H   UNL     1       3.630  -1.679  -0.052  0.00  0.00    +0.000 HD
BRANCH  12  14
ATOM     14  C   UNL     1       2.409   0.035   0.099  0.00  0.00    +0.000 A 
ATOM     15  C   UNL     1       2.402   1.417   0.236  0.00  0.00    +0.000 A 
ATOM     16  C   UNL     1       1.203   2.090   0.369  0.00  0.00    +0.000 A 
ATOM     17  C   UNL     1       0.011   1.389   0.365  0.00  0.00    +0.000 A 
ATOM     18  C   UNL     1       0.015   0.013   0.229  0.00  0.00    +0.000 A 
ATOM     19  C   UNL     1       1.210  -0.666   0.096  0.00  0.00    +0.000 A 
ENDBRANCH  12  14
ENDBRANCH   1  12
TORSDOF 7
ENDMDL
MODEL      168
REMARK  Name = ZINC04972884
REMARK  8 active torsions:
REMARK  status: ('A' for Active; 'I' for Inactive)
REMARK    1  A    between atoms: C_1  and  C_2
REMARK    2  A    between atoms: C_2  and  O_3
REMARK    3  A    between atoms: O_3  and  C_4
REMARK    4  A    between atoms: C_4  and  C_6
REMARK    5  A    between atoms: N_11  and  N_12
REMARK    6  A    between atoms: C_16  and  O_18
REMARK    7  A    between atoms: O_18  and  C_19
REMARK    8  A    between atoms: C_19  and  C_20
REMARK                            x       y       z     vdW  Elec       q    Type
REMARK                         _______ _______ _______ _____ _____    ______ ____
ROOT
ATOM      1  C   UNL     1      -0.036   1.500  -0.022  0.00  0.00    +0.000 C 
ATOM      2  C   UNL     1      -0.004  -0.041  -0.024  0.00  0.00    +0.000 C 
ATOM      3  N   UNL     1       1.212  -0.421   0.708  0.00  0.00    +0.000 N 
ATOM      4  C   UNL     1       2.108   0.740   0.768  0.00  0.00    +0.000 C 
ATOM      5  C   UNL     1       1.430   1.893   0.059  0.00  0.00    +0.000 C 
ATOM      6  N   UNL     1       1.974   2.966  -0.378  0.00  0.00    +0.000 NA
ATOM      7  C   UNL     1       1.463  -1.635   1.237  0.00  0.00    +0.000 C 
ATOM      8  O   UNL     1       0.646  -2.527   1.126  0.00  0.00    +0.000 OA
ENDROOT
BRANCH   6   9
ATOM      9  N   UNL     1       1.175   3.999  -0.886  0.00  0.00    +0.000 N 
ATOM     10  C   UNL     1       1.750   5.082  -1.446  0.00  0.00    +0.000 C 
ATOM     11  O   UNL     1       1.059   5.935  -1.969  0.00  0.00    +0.000 OA
ATOM     12  N   UNL     1       3.091   5.218  -1.428  0.00  0.00    +0.000 N 
ATOM     13  H   UNL     1       0.149   3.932  -0.831  0.00  0.00    +0.000 HD
ATOM     14  H   UNL     1       3.676   4.495  -0.986  0.00  0.00    +0.000 HD
ATOM     15  H   UNL     1       3.530   6.045  -1.857  0.00  0.00    +0.000 HD
ENDBRANCH   6   9
BRANCH   1  16
ATOM     16  C   UNL     1      -0.653   2.018  -1.296  0.00  0.00    +0.000 C 
ATOM     17  O   UNL     1      -0.102   1.828  -2.354  0.00  0.00    +0.000 OA
BRANCH  16  18
ATOM     18  O   UNL     1      -1.813   2.691  -1.254  0.00  0.00    +0.000 OA
BRANCH  18  20
ATOM     19  C   UNL     1      -3.647   3.922  -2.279  0.00  0.00    +0.000 C 
ATOM     20  C   UNL     1      -2.406   3.063  -2.526  0.00  0.00    +0.000 C 
ENDBRANCH  18  20
ENDBRANCH  16  18
ENDBRANCH   1  16
BRANCH   7  21
ATOM     21  O   UNL     1       2.620  -1.859   1.889  0.00  0.00    +0.000 OA
BRANCH  21  22
ATOM     22  C   UNL     1       2.823  -3.190   2.432  0.00  0.00    +0.000 C 
ATOM     23  C   UNL     1       4.183  -3.254   3.131  0.00  0.00    +0.000 C 
ENDBRANCH  21  22
ENDBRANCH   7  21
TORSDOF 6
ENDMDL
MODEL      169
REMARK  Name = ZINC06710748
REMARK  9 active torsions:
REMARK  status: ('A' for Active; 'I' for Inactive)
REMARK    1  A    between atoms: C_1  and  C_2
REMARK    2  A    between atoms: C_2  and  C_3
REMARK    3  A    between atoms: N_7  and  N_8
REMARK    4  A    between atoms: N_9  and  N_10
REMARK    5  A    between atoms: C_11  and  C_12
REMARK    6  A    between atoms: C_15  and  O_21
REMARK    7  A    between atoms: C_16  and  O_18
REMARK    8  A    between atoms: O_18  and  C_19
REMARK    9  A    between atoms: C_19  and  C_20
REMARK                            x       y       z     vdW  Elec       q    Type
REMARK                         _______ _______ _______ _____ _____    ______ ____
ROOT
ATOM      1  N   UNL     1      -0.923  -2.232  -0.001  0.00  0.00    +0.000 NA
ATOM      2  C   UNL     1      -1.956  -3.018   0.005  0.00  0.00    +0.000 C 
ENDROOT
BRANCH   1   8
ATOM      3  C   UNL     1       1.294   1.750  -0.001  0.00  0.00    +0.000 A 
ATOM      4  N   UNL     1       2.019   0.667  -0.014  0.00  0.00    +0.000 NA
ATOM      5  N   UNL     1       1.262  -0.371  -0.012  0.00  0.00    +0.000 NA
ATOM      6  C   UNL     1       0.002  -0.004   0.002  0.00  0.00    +0.000 A 
ATOM      7  N   UNL     1      -0.016   1.361   0.009  0.00  0.00    +0.000 N 
ATOM      8  N   UNL     1      -1.100  -0.843   0.008  0.00  0.00    +0.000 N 
ATOM      9  H   UNL     1      -2.050  -0.445   0.020  0.00  0.00    +0.000 HD
BRANCH   7  10
ATOM     10  N   UNL     1      -1.117   2.171   0.019  0.00  0.00    +0.000 N 
ATOM     11  H   UNL     1      -0.912   3.181   0.019  0.00  0.00    +0.000 HD
ATOM     12  H   UNL     1      -2.084   1.819   0.027  0.00  0.00    +0.000 HD
ENDBRANCH   7  10
BRANCH   3  14
ATOM     13  C   UNL     1       1.992   3.639   1.445  0.00  0.00    +0.000 C 
ATOM     14  C   UNL     1       1.805   3.167   0.002  0.00  0.00    +0.000 C 
ENDBRANCH   3  14
ENDBRANCH   1   8
BRANCH   2  15
ATOM     15  C   UNL     1      -1.770  -4.481  -0.004  0.00  0.00    +0.000 A 
ATOM     16  C   UNL     1      -0.482  -5.023  -0.026  0.00  0.00    +0.000 A 
ATOM     17  C   UNL     1      -0.310  -6.391  -0.029  0.00  0.00    +0.000 A 
ATOM     18  C   UNL     1      -1.413  -7.232  -0.023  0.00  0.00    +0.000 A 
ATOM     19  C   UNL     1      -2.700  -6.699  -0.007  0.00  0.00    +0.000 A 
ATOM     20  C   UNL     1      -2.881  -5.329   0.002  0.00  0.00    +0.000 A 
BRANCH  18  21
ATOM     21  O   UNL     1      -1.238  -8.580  -0.032  0.00  0.00    +0.000 OA
ATOM     22  H   UNL     1      -0.672  -8.770   0.757  0.00  0.00    +0.000 HD
ENDBRANCH  18  21
BRANCH  19  23
ATOM     23  O   UNL     1      -3.779  -7.527  -0.000  0.00  0.00    +0.000 OA
BRANCH  23  24
ATOM     24  C   UNL     1      -5.069  -6.912   0.016  0.00  0.00    +0.000 C 
ATOM     25  C   UNL     1      -6.150  -7.994   0.021  0.00  0.00    +0.000 C 
ENDBRANCH  23  24
ENDBRANCH  19  23
ENDBRANCH   2  15
TORSDOF 7
ENDMDL
MODEL      170
REMARK  Name = ZINC06157426
REMARK  8 active torsions:
REMARK  status: ('A' for Active; 'I' for Inactive)
REMARK    1  A    between atoms: C_1  and  C_2
REMARK    2  A    between atoms: C_1  and  N_4
REMARK    3  A    between atoms: C_2  and  O_3
REMARK    4  A    between atoms: N_4  and  N_5
REMARK    5  A    between atoms: C_6  and  C_8
REMARK    6  A    between atoms: C_8  and  N_9
REMARK    7  A    between atoms: N_9  and  C_10
REMARK    8  A    between atoms: C_11  and  N_12
REMARK                            x       y       z     vdW  Elec       q    Type
REMARK                         _______ _______ _______ _____ _____    ______ ____
ROOT
ATOM      1  N   UNL     1       2.911  -3.943  -0.047  0.00  0.00    +0.000 N 
ATOM      2  C   UNL     1       2.647  -2.622  -0.037  0.00  0.00    +0.000 C 
ATOM      3  O   UNL     1       3.558  -1.821  -0.042  0.00  0.00    +0.000 OA
ATOM      4  H   UNL     1       2.138  -4.623  -0.043  0.00  0.00    +0.000 HD
ENDROOT
BRANCH   1   5
ATOM      5  N   UNL     1       4.205  -4.381  -0.062  0.00  0.00    +0.000 NA
ATOM      6  H   UNL     1       5.030  -3.764  -0.066  0.00  0.00    +0.000 HD
BRANCH   5   7
ATOM      7  C   UNL     1       4.264  -5.849  -0.070  0.00  0.00    +0.000 C 
BRANCH   7   8
ATOM      8  C   UNL     1       5.726  -6.300  -0.086  0.00  0.00    +0.000 C 
BRANCH   8   9
ATOM      9  O   UNL     1       6.361  -5.904   1.131  0.00  0.00    +0.000 OA
ATOM     10  H   UNL     1       5.896  -6.322   1.898  0.00  0.00    +0.000 HD
ENDBRANCH   8   9
ENDBRANCH   7   8
ENDBRANCH   5   7
ENDBRANCH   1   5
BRANCH   2  11
ATOM     11  C   UNL     1       1.220  -2.139  -0.021  0.00  0.00    +0.000 C 
BRANCH  11  12
ATOM     12  N   UNL     1       1.200  -0.674  -0.013  0.00  0.00    +0.000 N 
ATOM     13  H   UNL     1       2.085  -0.147  -0.019  0.00  0.00    +0.000 HD
BRANCH  12  14
ATOM     14  C   UNL     1       0.002  -0.004   0.002  0.00  0.00    +0.000 C 
ATOM     15  C   UNL     1      -0.016   1.356   0.009  0.00  0.00    +0.000 C 
ATOM     16  O   UNL     1      -1.159  -0.695   0.009  0.00  0.00    +0.000 OA
BRANCH  15  17
ATOM     17  N   UNL     1      -1.199   2.018   0.019  0.00  0.00    +0.000 NA
ATOM     18  N   UNL     1      -2.101   2.522   0.026  0.00  0.00    +0.000 NA
ENDBRANCH  15  17
ENDBRANCH  12  14
ENDBRANCH  11  12
ENDBRANCH   2  11
TORSDOF 8
ENDMDL
MODEL      171
REMARK  Name = ZINC05503749
REMARK  9 active torsions:
REMARK  status: ('A' for Active; 'I' for Inactive)
REMARK    1  A    between atoms: C_1  and  C_2
REMARK    2  A    between atoms: C_3  and  C_10
REMARK    3  A    between atoms: C_10  and  N_17
REMARK    4  A    between atoms: C_11  and  C_12
REMARK    5  A    between atoms: C_11  and  N_17
REMARK    6  A    between atoms: C_12  and  O_13
REMARK    7  A    between atoms: C_14  and  C_15
REMARK    8  A    between atoms: C_14  and  N_17
REMARK    9  A    between atoms: C_15  and  O_16
REMARK                            x       y       z     vdW  Elec       q    Type
REMARK                         _______ _______ _______ _____ _____    ______ ____
ROOT
ATOM      1  C   UNL     1       4.172   2.295  -2.683  0.00  0.00    +0.000 C 
ATOM      2  C   UNL     1       3.418   2.139  -1.388  0.00  0.00    +0.000 A 
ATOM      3  C   UNL     1       4.072   2.186  -0.208  0.00  0.00    +0.000 A 
ATOM      4  C   UNL     1       3.333   2.035   0.993  0.00  0.00    +0.000 A 
ATOM      5  O   UNL     1       3.901   2.074   2.074  0.00  0.00    +0.000 OA
ATOM      6  N   UNL     1       2.006   1.855   0.935  0.00  0.00    +0.000 NA
ATOM      7  C   UNL     1       1.385   1.807  -0.226  0.00  0.00    +0.000 A 
ATOM      8  N   UNL     1       2.066   1.948  -1.395  0.00  0.00    +0.000 N 
ATOM      9  S   UNL     1      -0.360   1.562  -0.265  0.00  0.00    +0.000 SA
ATOM     10  H   UNL     1       1.559   1.911  -2.291  0.00  0.00    +0.000 HD
ENDROOT
BRANCH   3  11
ATOM     11  C   UNL     1       5.564   2.395  -0.168  0.00  0.00    +0.000 C 
BRANCH  11  12
ATOM     12  N   UNL     1       5.841   3.846  -0.123  0.00  0.00    +0.000 NA
BRANCH  12  13
ATOM     13  C   UNL     1       7.289   4.089  -0.299  0.00  0.00    +0.000 C 
BRANCH  13  14
ATOM     14  C   UNL     1       7.635   3.934  -1.781  0.00  0.00    +0.000 C 
BRANCH  14  15
ATOM     15  O   UNL     1       6.969   4.949  -2.535  0.00  0.00    +0.000 OA
ATOM     16  H   UNL     1       7.262   5.841  -2.220  0.00  0.00    +0.000 HD
ENDBRANCH  14  15
ENDBRANCH  13  14
ENDBRANCH  12  13
BRANCH  12  17
ATOM     17  C   UNL     1       5.388   4.407   1.167  0.00  0.00    +0.000 C 
BRANCH  17  18
ATOM     18  C   UNL     1       5.369   5.934   1.059  0.00  0.00    +0.000 C 
BRANCH  18  19
ATOM     19  O   UNL     1       4.411   6.330   0.076  0.00  0.00    +0.000 OA
ATOM     20  H   UNL     1       3.513   6.008   0.341  0.00  0.00    +0.000 HD
ENDBRANCH  18  19
ENDBRANCH  17  18
ENDBRANCH  12  17
ENDBRANCH  11  12
ENDBRANCH   3  11
TORSDOF 8
ENDMDL
MODEL      172
REMARK  Name = ZINC29348003
REMARK  9 active torsions:
REMARK  status: ('A' for Active; 'I' for Inactive)
REMARK    1  A    between atoms: C_1  and  C_2
REMARK    2  A    between atoms: C_2  and  C_3
REMARK    3  A    between atoms: C_2  and  N_13
REMARK    4  A    between atoms: N_8  and  C_9
REMARK    5  A    between atoms: C_9  and  C_10
REMARK    6  A    between atoms: C_10  and  O_11
REMARK    7  A    between atoms: O_11  and  C_12
REMARK    8  A    between atoms: C_17  and  C_19
REMARK    9  A    between atoms: C_19  and  C_21
REMARK                            x       y       z     vdW  Elec       q    Type
REMARK                         _______ _______ _______ _____ _____    ______ ____
ROOT
ATOM      1  C   UNL     1      -0.749   3.086   1.275  0.00  0.00    +0.000 C 
ATOM      2  O   UNL     1      -0.224   3.694   2.183  0.00  0.00    +0.000 OA
ATOM      3  N   UNL     1      -1.352   3.757   0.274  0.00  0.00    +0.000 N 
ATOM      4  C   UNL     1      -1.370   5.105   0.281  0.00  0.00    +0.000 C 
ATOM      5  O   UNL     1      -0.843   5.715   1.191  0.00  0.00    +0.000 OA
ATOM      6  N   UNL     1      -1.972   5.776  -0.721  0.00  0.00    +0.000 N 
ATOM      7  H   UNL     1      -1.798   3.240  -0.497  0.00  0.00    +0.000 HD
ATOM      8  H   UNL     1      -2.419   5.259  -1.492  0.00  0.00    +0.000 HD
ENDROOT
BRANCH   1  10
ATOM      9  C   UNL     1      -0.013   1.086   0.008  0.00  0.00    +0.000 C 
ATOM     10  C   UNL     1      -0.729   1.579   1.267  0.00  0.00    +0.000 C 
BRANCH  10  11
ATOM     11  N   UNL     1      -0.020   1.094   2.454  0.00  0.00    +0.000 N 
ATOM     12  C   UNL     1       1.242   1.436   2.631  0.00  0.00    +0.000 A 
ATOM     13  C   UNL     1       1.951   1.006   3.738  0.00  0.00    +0.000 A 
ATOM     14  C   UNL     1       1.327   0.196   4.670  0.00  0.00    +0.000 A 
ATOM     15  C   UNL     1      -0.013  -0.156   4.453  0.00  0.00    +0.000 A 
ATOM     16  C   UNL     1      -0.659   0.325   3.310  0.00  0.00    +0.000 A 
BRANCH  15  17
ATOM     17  C   UNL     1      -0.726  -1.016   5.410  0.00  0.00    +0.000 C 
ATOM     18  O   UNL     1      -1.885  -1.314   5.212  0.00  0.00    +0.000 OA
ATOM     19  C   UNL     1      -0.017  -1.527   6.638  0.00  0.00    +0.000 C 
ENDBRANCH  15  17
ENDBRANCH  10  11
ENDBRANCH   1  10
BRANCH   6  20
ATOM     20  C   UNL     1      -1.992   7.241  -0.713  0.00  0.00    +0.000 C 
BRANCH  20  21
ATOM     21  C   UNL     1      -2.732   7.748  -1.952  0.00  0.00    +0.000 C 
BRANCH  21  22
ATOM     22  O   UNL     1      -4.103   7.351  -1.884  0.00  0.00    +0.000 OA
ATOM     23  C   UNL     1      -4.888   7.776  -3.000  0.00  0.00    +0.000 C 
ENDBRANCH  21  22
ENDBRANCH  20  21
ENDBRANCH   6  20
TORSDOF 6
ENDMDL
MODEL      173
REMARK  Name = ZINC01625773
REMARK  8 active torsions:
REMARK  status: ('A' for Active; 'I' for Inactive)
REMARK    1  A    between atoms: N_10  and  C_11
REMARK    2  A    between atoms: C_11  and  C_12
REMARK    3  A    between atoms: C_11  and  S_15
REMARK    4  A    between atoms: C_12  and  C_13
REMARK    5  A    between atoms: C_13  and  O_14
REMARK    6  A    between atoms: S_15  and  C_16
REMARK    7  A    between atoms: C_16  and  C_17
REMARK    8  A    between atoms: C_17  and  O_18
REMARK                            x       y       z     vdW  Elec       q    Type
REMARK                         _______ _______ _______ _____ _____    ______ ____
ROOT
ATOM      1  C   UNL     1      -0.108   1.501  -0.210  0.00  0.00    +0.000 A 
ATOM      2  N   UNL     1       0.866   2.364  -0.219  0.00  0.00    +0.000 NA
ATOM      3  C   UNL     1       0.362   3.610  -0.044  0.00  0.00    +0.000 A 
ATOM      4  C   UNL     1       0.934   4.902   0.029  0.00  0.00    +0.000 A 
ATOM      5  O   UNL     1       2.139   5.059  -0.075  0.00  0.00    +0.000 OA
ATOM      6  N   UNL     1       0.112   5.958   0.216  0.00  0.00    +0.000 N 
ATOM      7  C   UNL     1      -1.234   5.771   0.331  0.00  0.00    +0.000 A 
ATOM      8  N   UNL     1      -1.777   4.576   0.264  0.00  0.00    +0.000 NA
ATOM      9  C   UNL     1      -1.026   3.484   0.081  0.00  0.00    +0.000 A 
ATOM     10  N   UNL     1      -1.297   2.147  -0.033  0.00  0.00    +0.000 N 
ATOM     11  N   UNL     1      -2.045   6.862   0.520  0.00  0.00    +0.000 N 
ATOM     12  H   UNL     1       0.503   6.909   0.273  0.00  0.00    +0.000 HD
ATOM     13  H   UNL     1      -1.646   7.810   0.576  0.00  0.00    +0.000 HD
ATOM     14  H   UNL     1      -3.062   6.729   0.608  0.00  0.00    +0.000 HD
ENDROOT
BRANCH  10  15
ATOM     15  C   UNL     1      -2.621   1.524   0.028  0.00  0.00    +0.000 C 
BRANCH  15  16
ATOM     16  C   UNL     1      -3.002   1.276   1.489  0.00  0.00    +0.000 C 
BRANCH  16  17
ATOM     17  C   UNL     1      -4.439   0.755   1.561  0.00  0.00    +0.000 C 
BRANCH  17  18
ATOM     18  O   UNL     1      -4.811   0.573   2.928  0.00  0.00    +0.000 OA
ATOM     19  H   UNL     1      -4.750   1.438   3.406  0.00  0.00    +0.000 HD
ENDBRANCH  17  18
ENDBRANCH  16  17
ENDBRANCH  15  16
BRANCH  15  20
ATOM     20  S   UNL     1      -2.588  -0.055  -0.864  0.00  0.00    +0.000 S 
BRANCH  20  21
ATOM     21  C   UNL     1      -2.342   0.424  -2.596  0.00  0.00    +0.000 C 
BRANCH  21  22
ATOM     22  C   UNL     1      -2.434  -0.817  -3.487  0.00  0.00    +0.000 C 
BRANCH  22  23
ATOM     23  O   UNL     1      -2.240  -0.439  -4.851  0.00  0.00    +0.000 OA
ATOM     24  H   UNL     1      -1.347  -0.024  -4.956  0.00  0.00    +0.000 HD
ENDBRANCH  22  23
ENDBRANCH  21  22
ENDBRANCH  20  21
ENDBRANCH  15  20
ENDBRANCH  10  15
TORSDOF 8
ENDMDL
MODEL      174
REMARK  Name = ZINC01692108
REMARK  8 active torsions:
REMARK  status: ('A' for Active; 'I' for Inactive)
REMARK    1  A    between atoms: C_6  and  N_14
REMARK    2  A    between atoms: C_9  and  N_10
REMARK    3  A    between atoms: N_10  and  C_11
REMARK    4  A    between atoms: C_11  and  C_12
REMARK    5  A    between atoms: C_12  and  O_13
REMARK    6  A    between atoms: N_14  and  C_15
REMARK    7  A    between atoms: C_15  and  C_16
REMARK    8  A    between atoms: C_16  and  O_17
REMARK                            x       y       z     vdW  Elec       q    Type
REMARK                         _______ _______ _______ _____ _____    ______ ____
ROOT
ATOM      1  C   UNL     1      -4.158  -0.432   0.018  0.00  0.00    +0.000 A 
ATOM      2  N   UNL     1      -2.798  -0.387   0.013  0.00  0.00    +0.000 N 
ATOM      3  C   UNL     1      -2.433   0.939   0.013  0.00  0.00    +0.000 A 
ATOM      4  C   UNL     1      -3.632   1.673   0.027  0.00  0.00    +0.000 A 
ATOM      5  N   UNL     1      -4.644   0.777   0.027  0.00  0.00    +0.000 NA
ATOM      6  C   UNL     1      -3.538   3.076   0.035  0.00  0.00    +0.000 A 
ATOM      7  N   UNL     1      -2.344   3.643   0.033  0.00  0.00    +0.000 NA
ATOM      8  N   UNL     1      -1.254   2.968   0.024  0.00  0.00    +0.000 NA
ATOM      9  C   UNL     1      -1.228   1.647   0.017  0.00  0.00    +0.000 A 
ATOM     10  H   UNL     1      -2.160  -1.195   0.009  0.00  0.00    +0.000 HD
ENDROOT
BRANCH   9  11
ATOM     11  N   UNL     1      -0.011   0.966   0.007  0.00  0.00    +0.000 N 
ATOM     12  H   UNL     1       0.003  -0.064   0.006  0.00  0.00    +0.000 HD
BRANCH  11  13
ATOM     13  C   UNL     1       1.248   1.716  -0.001  0.00  0.00    +0.000 C 
BRANCH  13  14
ATOM     14  C   UNL     1       2.424   0.737  -0.017  0.00  0.00    +0.000 C 
BRANCH  14  15
ATOM     15  O   UNL     1       2.414   0.001  -1.242  0.00  0.00    +0.000 OA
ATOM     16  H   UNL     1       2.496   0.627  -2.005  0.00  0.00    +0.000 HD
ENDBRANCH  14  15
ENDBRANCH  13  14
ENDBRANCH  11  13
ENDBRANCH   9  11
BRANCH   6  17
ATOM     17  N   UNL     1      -4.689   3.859   0.044  0.00  0.00    +0.000 N 
ATOM     18  H   UNL     1      -5.617   3.412   0.046  0.00  0.00    +0.000 HD
BRANCH  17  19
ATOM     19  C   UNL     1      -4.581   5.320   0.052  0.00  0.00    +0.000 C 
BRANCH  19  20
ATOM     20  C   UNL     1      -5.982   5.935   0.062  0.00  0.00    +0.000 C 
BRANCH  20  21
ATOM     21  O   UNL     1      -6.642   5.598   1.284  0.00  0.00    +0.000 OA
ATOM     22  H   UNL     1      -6.122   5.951   2.049  0.00  0.00    +0.000 HD
ENDBRANCH  20  21
ENDBRANCH  19  20
ENDBRANCH  17  19
ENDBRANCH   6  17
TORSDOF 8
ENDMDL
MODEL      175
REMARK  Name = ZINC20395712
REMARK  8 active torsions:
REMARK  status: ('A' for Active; 'I' for Inactive)
REMARK    1  A    between atoms: C_1  and  C_2
REMARK    2  A    between atoms: C_2  and  S_3
REMARK    3  A    between atoms: S_3  and  C_4
REMARK    4  A    between atoms: C_4  and  C_5
REMARK    5  A    between atoms: C_8  and  S_11
REMARK    6  A    between atoms: N_9  and  N_10
REMARK    7  A    between atoms: S_11  and  C_12
REMARK    8  A    between atoms: C_12  and  C_13
REMARK                            x       y       z     vdW  Elec       q    Type
REMARK                         _______ _______ _______ _____ _____    ______ ____
ROOT
ATOM      1  C   UNL     1       1.323  -0.356  -0.013  0.00  0.00    +0.000 A 
ATOM      2  N   UNL     1       2.019   0.745  -0.013  0.00  0.00    +0.000 NA
ATOM      3  N   UNL     1       1.233   1.763  -0.000  0.00  0.00    +0.000 NA
ATOM      4  C   UNL     1      -0.016   1.361   0.009  0.00  0.00    +0.000 A 
ATOM      5  N   UNL     1       0.002  -0.004   0.002  0.00  0.00    +0.000 N 
ENDROOT
BRANCH   5   6
ATOM      6  N   UNL     1      -1.075  -0.844   0.008  0.00  0.00    +0.000 N 
ATOM      7  H   UNL     1      -0.844  -1.847   0.000  0.00  0.00    +0.000 HD
ATOM      8  H   UNL     1      -2.053  -0.518   0.019  0.00  0.00    +0.000 HD
ENDBRANCH   5   6
BRANCH   1   9
ATOM      9  C   UNL     1       1.873  -1.760  -0.025  0.00  0.00    +0.000 C 
BRANCH   9  10
ATOM     10  S   UNL     1       2.078  -2.313  -1.741  0.00  0.00    +0.000 S 
BRANCH  10  12
ATOM     11  C   UNL     1       2.960  -4.589  -2.976  0.00  0.00    +0.000 C 
ATOM     12  C   UNL     1       2.738  -3.995  -1.583  0.00  0.00    +0.000 C 
ENDBRANCH  10  12
ENDBRANCH   9  10
ENDBRANCH   1   9
BRANCH   4  13
ATOM     13  S   UNL     1      -1.447   2.389   0.022  0.00  0.00    +0.000 S 
BRANCH  13  14
ATOM     14  C   UNL     1      -0.662   4.020   0.027  0.00  0.00    +0.000 C 
BRANCH  14  15
ATOM     15  C   UNL     1      -1.724   5.089   0.038  0.00  0.00    +0.000 C 
ATOM     16  O   UNL     1      -2.892   4.780   0.042  0.00  0.00    +0.000 OA
ATOM     17  O   UNL     1      -1.373   6.385   0.043  0.00  0.00    +0.000 OA
ENDBRANCH  14  15
ENDBRANCH  13  14
ENDBRANCH   4  13
TORSDOF 7
ENDMDL
MODEL      176
REMARK  Name = ZINC01623623
REMARK  7 active torsions:
REMARK  status: ('A' for Active; 'I' for Inactive)
REMARK    1  A    between atoms: C_6  and  C_7
REMARK    2  A    between atoms: C_7  and  C_8
REMARK    3  A    between atoms: C_7  and  S_12
REMARK    4  A    between atoms: C_8  and  N_9
REMARK    5  A    between atoms: S_12  and  C_13
REMARK    6  A    between atoms: C_13  and  C_14
REMARK    7  A    between atoms: C_14  and  N_18
REMARK                            x       y       z     vdW  Elec       q    Type
REMARK                         _______ _______ _______ _____ _____    ______ ____
ROOT
ATOM      1  C   UNL     1       1.026  -0.397   1.074  0.00  0.00    +0.000 C 
ENDROOT
BRANCH   1   7
ATOM      2  C   UNL     1       1.544  -2.525  -0.136  0.00  0.00    +0.000 A 
ATOM      3  C   UNL     1       1.671  -3.901  -0.176  0.00  0.00    +0.000 A 
ATOM      4  C   UNL     1       1.402  -4.655   0.954  0.00  0.00    +0.000 A 
ATOM      5  C   UNL     1       1.009  -4.023   2.132  0.00  0.00    +0.000 A 
ATOM      6  C   UNL     1       0.889  -2.644   2.166  0.00  0.00    +0.000 A 
ATOM      7  C   UNL     1       1.158  -1.897   1.034  0.00  0.00    +0.000 A 
ATOM      8  O   UNL     1       0.805  -4.974   3.090  0.00  0.00    +0.000 OA
ATOM      9  C   UNL     1       1.471  -6.156   2.606  0.00  0.00    +0.000 C 
ATOM     10  O   UNL     1       1.445  -6.002   1.175  0.00  0.00    +0.000 OA
ENDBRANCH   1   7
BRANCH   1  11
ATOM     11  C   UNL     1      -0.016   0.051   0.047  0.00  0.00    +0.000 C 
BRANCH  11  12
ATOM     12  N   UNL     1      -1.335  -0.456   0.436  0.00  0.00    +0.000 N 
ATOM     13  O   UNL     1      -1.715  -0.342   1.588  0.00  0.00    +0.000 OA
ATOM     14  O   UNL     1      -2.052  -0.986  -0.393  0.00  0.00    +0.000 OA
ENDBRANCH  11  12
ENDBRANCH   1  11
BRANCH   1  15
ATOM     15  S   UNL     1       2.626   0.362   0.681  0.00  0.00    +0.000 S 
BRANCH  15  16
ATOM     16  C   UNL     1       2.359   2.131   0.983  0.00  0.00    +0.000 C 
BRANCH  16  17
ATOM     17  C   UNL     1       3.680   2.883   0.811  0.00  0.00    +0.000 C 
BRANCH  17  18
ATOM     18  N   UNL     1       3.456   4.315   1.079  0.00  0.00    +0.000 N 
ATOM     19  H   UNL     1       3.115   4.438   2.043  0.00  0.00    +0.000 HD
ATOM     20  H   UNL     1       2.761   4.688   0.418  0.00  0.00    +0.000 HD
ATOM     21  H   UNL     1       4.343   4.825   0.964  0.00  0.00    +0.000 HD
ENDBRANCH  17  18
ENDBRANCH  16  17
ENDBRANCH  15  16
ENDBRANCH   1  15
TORSDOF 7
ENDMDL
MODEL      177
REMARK  Name = ZINC27081968
REMARK  8 active torsions:
REMARK  status: ('A' for Active; 'I' for Inactive)
REMARK    1  A    between atoms: C_1  and  C_2
REMARK    2  A    between atoms: C_5  and  C_8
REMARK    3  A    between atoms: C_8  and  O_9
REMARK    4  A    between atoms: C_10  and  N_11
REMARK    5  A    between atoms: N_11  and  C_12
REMARK    6  A    between atoms: C_12  and  C_13
REMARK    7  A    between atoms: C_13  and  N_14
REMARK    8  A    between atoms: C_15  and  C_17
REMARK                            x       y       z     vdW  Elec       q    Type
REMARK                         _______ _______ _______ _____ _____    ______ ____
ROOT
ATOM      1  N   UNL     1       0.033   1.009  -2.534  0.00  0.00    +0.000 N 
ATOM      2  H   UNL     1      -0.448   0.778  -1.653  0.00  0.00    +0.000 HD
ENDROOT
BRANCH   1  10
ATOM      3  C   UNL     1       1.200   1.512   2.501  0.00  0.00    +0.000 C 
ATOM      4  C   UNL     1       1.871   1.826   1.189  0.00  0.00    +0.000 C 
ATOM      5  C   UNL     1       1.221   1.532  -0.001  0.00  0.00    +0.000 C 
ATOM      6  C   UNL     1       1.858   1.838  -1.215  0.00  0.00    +0.000 C 
ATOM      7  C   UNL     1       3.129   2.424  -1.163  0.00  0.00    +0.000 C 
ATOM      8  C   UNL     1       3.700   2.675   0.067  0.00  0.00    +0.000 C 
ATOM      9  N   UNL     1       3.070   2.373   1.186  0.00  0.00    +0.000 NA
ATOM     10  C   UNL     1       1.207   1.550  -2.508  0.00  0.00    +0.000 C 
ATOM     11  O   UNL     1      -0.011   0.963   0.007  0.00  0.00    +0.000 OA
BRANCH   7  12
ATOM     12  C   UNL     1       3.861   2.775  -2.432  0.00  0.00    +0.000 C 
BRANCH  12  13
ATOM     13  O   UNL     1       5.126   3.355  -2.107  0.00  0.00    +0.000 OA
ATOM     14  H   UNL     1       5.663   2.707  -1.585  0.00  0.00    +0.000 HD
ENDBRANCH  12  13
ENDBRANCH   7  12
ENDBRANCH   1  10
BRANCH   1  15
ATOM     15  C   UNL     1      -0.613   0.724  -3.818  0.00  0.00    +0.000 C 
BRANCH  15  16
ATOM     16  C   UNL     1      -0.775  -0.789  -3.982  0.00  0.00    +0.000 C 
BRANCH  16  17
ATOM     17  N   UNL     1      -1.421  -1.074  -5.266  0.00  0.00    +0.000 N 
ATOM     18  C   UNL     1      -1.667  -2.349  -5.628  0.00  0.00    +0.000 C 
ATOM     19  O   UNL     1      -1.352  -3.263  -4.889  0.00  0.00    +0.000 OA
ATOM     20  H   UNL     1      -1.688  -0.300  -5.891  0.00  0.00    +0.000 HD
BRANCH  18  21
ATOM     21  C   UNL     1      -2.314  -2.634  -6.913  0.00  0.00    +0.000 A 
ATOM     22  C   UNL     1      -2.619  -3.873  -7.400  0.00  0.00    +0.000 A 
ATOM     23  C   UNL     1      -3.225  -3.676  -8.651  0.00  0.00    +0.000 A 
ATOM     24  C   UNL     1      -3.262  -2.344  -8.870  0.00  0.00    +0.000 A 
ATOM     25  O   UNL     1      -2.717  -1.719  -7.818  0.00  0.00    +0.000 OA
ENDBRANCH  18  21
ENDBRANCH  16  17
ENDBRANCH  15  16
ENDBRANCH   1  15
TORSDOF 7
ENDMDL
MODEL      178
REMARK  Name = ZINC06499309
REMARK  9 active torsions:
REMARK  status: ('A' for Active; 'I' for Inactive)
REMARK    1  A    between atoms: C_1  and  C_2
REMARK    2  A    between atoms: C_2  and  O_3
REMARK    3  A    between atoms: O_3  and  C_4
REMARK    4  A    between atoms: C_4  and  C_6
REMARK    5  A    between atoms: C_7  and  N_16
REMARK    6  A    between atoms: C_9  and  C_11
REMARK    7  A    between atoms: C_11  and  O_13
REMARK    8  A    between atoms: O_13  and  C_14
REMARK    9  A    between atoms: C_14  and  C_15
REMARK                            x       y       z     vdW  Elec       q    Type
REMARK                         _______ _______ _______ _____ _____    ______ ____
ROOT
ATOM      1  C   UNL     1      -3.377  -1.208   0.028  0.00  0.00    +0.000 A 
ATOM      2  C   UNL     1      -2.694  -2.427   0.015  0.00  0.00    +0.000 A 
ATOM      3  N   UNL     1      -1.374  -2.129  -0.002  0.00  0.00    +0.000 NA
ATOM      4  C   UNL     1      -1.262  -0.757   0.010  0.00  0.00    +0.000 A 
ATOM      5  N   UNL     1      -2.462  -0.228   0.024  0.00  0.00    +0.000 NA
ENDROOT
BRANCH   2   6
ATOM      6  N   UNL     1      -3.252  -3.682   0.014  0.00  0.00    +0.000 N 
ATOM      7  H   UNL     1      -4.282  -3.703   0.023  0.00  0.00    +0.000 HD
ATOM      8  H   UNL     1      -2.698  -4.550   0.004  0.00  0.00    +0.000 HD
ENDBRANCH   2   6
BRANCH   1   9
ATOM      9  C   UNL     1      -4.835  -1.032   0.042  0.00  0.00    +0.000 C 
ATOM     10  O   UNL     1      -5.564  -2.005   0.043  0.00  0.00    +0.000 OA
BRANCH   9  11
ATOM     11  O   UNL     1      -5.364   0.208   0.053  0.00  0.00    +0.000 OA
BRANCH  11  13
ATOM     12  C   UNL     1      -7.223   1.781   0.078  0.00  0.00    +0.000 C 
ATOM     13  C   UNL     1      -6.812   0.307   0.066  0.00  0.00    +0.000 C 
ENDBRANCH  11  13
ENDBRANCH   9  11
ENDBRANCH   1   9
BRANCH   4  14
ATOM     14  C   UNL     1       0.002  -0.004   0.002  0.00  0.00    +0.000 C 
ATOM     15  O   UNL     1       1.063  -0.597  -0.011  0.00  0.00    +0.000 OA
BRANCH  14  16
ATOM     16  O   UNL     1      -0.016   1.344   0.009  0.00  0.00    +0.000 OA
BRANCH  16  17
ATOM     17  C   UNL     1       1.268   2.021   0.001  0.00  0.00    +0.000 C 
ATOM     18  C   UNL     1       1.047   3.535   0.011  0.00  0.00    +0.000 C 
ENDBRANCH  16  17
ENDBRANCH  14  16
ENDBRANCH   4  14
TORSDOF 7
ENDMDL
MODEL      179
REMARK  Name = ZINC05594650
REMARK  9 active torsions:
REMARK  status: ('A' for Active; 'I' for Inactive)
REMARK    1  A    between atoms: C_3  and  N_18
REMARK    2  A    between atoms: N_7  and  C_10
REMARK    3  A    between atoms: C_10  and  C_11
REMARK    4  A    between atoms: C_11  and  O_12
REMARK    5  A    between atoms: O_12  and  C_13
REMARK    6  A    between atoms: C_13  and  C_14
REMARK    7  A    between atoms: C_14  and  C_15
REMARK    8  A    between atoms: C_14  and  O_17
REMARK    9  A    between atoms: C_15  and  O_16
REMARK                            x       y       z     vdW  Elec       q    Type
REMARK                         _______ _______ _______ _____ _____    ______ ____
ROOT
ATOM      1  C   UNL     1       0.686  -2.600  -0.019  0.00  0.00    +0.000 A 
ATOM      2  N   UNL     1      -0.595  -2.277  -0.005  0.00  0.00    +0.000 NA
ATOM      3  C   UNL     1      -0.984  -1.006   0.006  0.00  0.00    +0.000 A 
ATOM      4  C   UNL     1       0.002  -0.004   0.002  0.00  0.00    +0.000 A 
ATOM      5  C   UNL     1       1.350  -0.400  -0.013  0.00  0.00    +0.000 A 
ATOM      6  N   UNL     1       1.643  -1.696  -0.023  0.00  0.00    +0.000 NA
ATOM      7  N   UNL     1       2.084   0.759  -0.014  0.00  0.00    +0.000 N 
ATOM      8  C   UNL     1       1.205   1.800   0.000  0.00  0.00    +0.000 A 
ATOM      9  N   UNL     1      -0.016   1.351   0.009  0.00  0.00    +0.000 NA
ENDROOT
BRANCH   3  10
ATOM     10  N   UNL     1      -2.328  -0.677   0.021  0.00  0.00    +0.000 N 
ATOM     11  H   UNL     1      -3.033  -1.427   0.024  0.00  0.00    +0.000 HD
ATOM     12  H   UNL     1      -2.622   0.310   0.029  0.00  0.00    +0.000 HD
ENDBRANCH   3  10
BRANCH   7  13
ATOM     13  C   UNL     1       3.546   0.859  -0.028  0.00  0.00    +0.000 C 
BRANCH  13  14
ATOM     14  C   UNL     1       4.049   0.776  -1.471  0.00  0.00    +0.000 C 
BRANCH  14  15
ATOM     15  O   UNL     1       5.474   0.874  -1.484  0.00  0.00    +0.000 OA
BRANCH  15  16
ATOM     16  C   UNL     1       6.049   0.808  -2.791  0.00  0.00    +0.000 C 
BRANCH  16  17
ATOM     17  C   UNL     1       7.571   0.921  -2.685  0.00  0.00    +0.000 C 
BRANCH  17  18
ATOM     18  O   UNL     1       7.918   2.214  -2.185  0.00  0.00    +0.000 OA
ATOM     19  H   UNL     1       7.516   2.342  -1.290  0.00  0.00    +0.000 HD
ENDBRANCH  17  18
BRANCH  17  20
ATOM     20  C   UNL     1       8.194   0.726  -4.069  0.00  0.00    +0.000 C 
BRANCH  20  21
ATOM     21  O   UNL     1       9.619   0.716  -3.953  0.00  0.00    +0.000 OA
ATOM     22  H   UNL     1       9.897  -0.025  -3.358  0.00  0.00    +0.000 HD
ENDBRANCH  20  21
ENDBRANCH  17  20
ENDBRANCH  16  17
ENDBRANCH  15  16
ENDBRANCH  14  15
ENDBRANCH  13  14
ENDBRANCH   7  13
TORSDOF 9
ENDMDL
MODEL      180
REMARK  Name = ZINC19731960
REMARK  8 active torsions:
REMARK  status: ('A' for Active; 'I' for Inactive)
REMARK    1  A    between atoms: C_1  and  N_2
REMARK    2  A    between atoms: N_2  and  C_3
REMARK    3  A    between atoms: N_2  and  C_14
REMARK    4  A    between atoms: C_3  and  C_4
REMARK    5  A    between atoms: C_4  and  C_5
REMARK    6  A    between atoms: C_5  and  O_6
REMARK    7  A    between atoms: O_6  and  C_7
REMARK    8  A    between atoms: C_11  and  N_13
REMARK                            x       y       z     vdW  Elec       q    Type
REMARK                         _______ _______ _______ _____ _____    ______ ____
ROOT
ATOM      1  C   UNL     1       0.989   7.381   0.034  0.00  0.00    +0.000 C 
ENDROOT
BRANCH   1   2
ATOM      2  C   UNL     1       1.204   5.867   0.023  0.00  0.00    +0.000 C 
BRANCH   2   3
ATOM      3  O   UNL     1      -0.062   5.206   0.032  0.00  0.00    +0.000 OA
BRANCH   3   4
ATOM      4  C   UNL     1      -0.049   3.847   0.024  0.00  0.00    +0.000 A 
ATOM      5  C   UNL     1       1.159   3.164   0.008  0.00  0.00    +0.000 A 
ATOM      6  C   UNL     1       1.175   1.782   0.000  0.00  0.00    +0.000 A 
ATOM      7  C   UNL     1      -0.013   1.076   0.008  0.00  0.00    +0.000 A 
ATOM      8  C   UNL     1      -1.225   1.754   0.017  0.00  0.00    +0.000 A 
ATOM      9  C   UNL     1      -1.242   3.142   0.031  0.00  0.00    +0.000 A 
BRANCH   8  10
ATOM     10  N   UNL     1      -2.426   1.040   0.019  0.00  0.00    +0.000 N 
ATOM     11  H   UNL     1      -2.412   0.010   0.013  0.00  0.00    +0.000 HD
ATOM     12  H   UNL     1      -3.324   1.542   0.026  0.00  0.00    +0.000 HD
ENDBRANCH   8  10
ENDBRANCH   3   4
ENDBRANCH   2   3
ENDBRANCH   1   2
BRANCH   1  13
ATOM     13  C   UNL     1       2.346   8.089   0.025  0.00  0.00    +0.000 C 
BRANCH  13  15
ATOM     14  C   UNL     1       1.526   9.979   1.297  0.00  0.00    +0.000 C 
ATOM     15  N   UNL     1       2.139   9.544   0.035  0.00  0.00    +0.000 NA
BRANCH  15  16
ATOM     16  C   UNL     1       3.400  10.256  -0.211  0.00  0.00    +0.000 C 
ATOM     17  C   UNL     1       4.365  10.025   0.963  0.00  0.00    +0.000 C 
ATOM     18  C   UNL     1       5.553  11.013   0.872  0.00  0.00    +0.000 C 
ATOM     19  S   UNL     1       4.816  12.451  -0.006  0.00  0.00    +0.000 S 
ATOM     20  O   UNL     1       5.483  12.624  -1.249  0.00  0.00    +0.000 OA
ATOM     21  O   UNL     1       4.721  13.544   0.896  0.00  0.00    +0.000 OA
ATOM     22  C   UNL     1       3.127  11.784  -0.320  0.00  0.00    +0.000 C 
ENDBRANCH  15  16
ENDBRANCH  13  15
ENDBRANCH   1  13
TORSDOF 7
ENDMDL
MODEL      181
REMARK  Name = ZINC02351906
REMARK  10 active torsions:
REMARK  status: ('A' for Active; 'I' for Inactive)
REMARK    1  A    between atoms: C_1  and  C_2
REMARK    2  A    between atoms: C_2  and  N_25
REMARK    3  A    between atoms: C_3  and  C_4
REMARK    4  A    between atoms: C_3  and  N_25
REMARK    5  A    between atoms: C_5  and  C_6
REMARK    6  A    between atoms: C_5  and  N_25
REMARK    7  A    between atoms: C_6  and  N_7
REMARK    8  A    between atoms: N_7  and  N_8
REMARK    9  A    between atoms: N_8  and  C_9
REMARK   10  A    between atoms: N_16  and  C_19
REMARK                            x       y       z     vdW  Elec       q    Type
REMARK                         _______ _______ _______ _____ _____    ______ ____
ROOT
ATOM      1  C   UNL     1      -0.508   0.519  -3.276  0.00  0.00    +0.000 C 
ATOM      2  C   UNL     1       0.680   0.593  -3.979  0.00  0.00    +0.000 C 
ATOM      3  C   UNL     1       0.906   1.632  -5.000  0.00  0.00    +0.000 C 
ATOM      4  O   UNL     1       0.049   2.458  -5.252  0.00  0.00    +0.000 OA
ATOM      5  N   UNL     1       2.092   1.646  -5.643  0.00  0.00    +0.000 NA
ATOM      6  C   UNL     1       3.043   0.739  -5.380  0.00  0.00    +0.000 C 
ATOM      7  S   UNL     1       4.513   0.830  -6.252  0.00  0.00    +0.000 S 
ATOM      8  N   UNL     1       2.903  -0.235  -4.470  0.00  0.00    +0.000 N 
ATOM      9  C   UNL     1       1.773  -0.368  -3.746  0.00  0.00    +0.000 C 
ATOM     10  O   UNL     1       1.658  -1.257  -2.923  0.00  0.00    +0.000 OA
ENDROOT
BRANCH   8  11
ATOM     11  C   UNL     1       3.956  -1.137  -4.266  0.00  0.00    +0.000 A 
ATOM     12  C   UNL     1       4.060  -2.275  -5.054  0.00  0.00    +0.000 A 
ATOM     13  C   UNL     1       5.102  -3.160  -4.854  0.00  0.00    +0.000 A 
ATOM     14  C   UNL     1       6.035  -2.917  -3.863  0.00  0.00    +0.000 A 
ATOM     15  C   UNL     1       5.932  -1.787  -3.073  0.00  0.00    +0.000 A 
ATOM     16  C   UNL     1       4.895  -0.897  -3.272  0.00  0.00    +0.000 A 
ENDBRANCH   8  11
BRANCH   1  17
ATOM     17  N   UNL     1      -0.690  -0.455  -2.361  0.00  0.00    +0.000 N 
ATOM     18  H   UNL     1       0.017  -1.196  -2.250  0.00  0.00    +0.000 HD
BRANCH  17  19
ATOM     19  N   UNL     1      -1.813  -0.459  -1.583  0.00  0.00    +0.000 NA
ATOM     20  H   UNL     1      -2.644  -0.513  -2.188  0.00  0.00    +0.000 HD
BRANCH  19  21
ATOM     21  C   UNL     1      -1.809  -1.602  -0.660  0.00  0.00    +0.000 C 
BRANCH  21  22
ATOM     22  C   UNL     1      -3.079  -1.572   0.194  0.00  0.00    +0.000 C 
BRANCH  22  23
ATOM     23  N   UNL     1      -3.050  -2.715   1.131  0.00  0.00    +0.000 N 
ATOM     24  H   UNL     1      -2.152  -2.712   1.635  0.00  0.00    +0.000 HD
BRANCH  23  25
ATOM     25  C   UNL     1      -3.176  -3.984   0.383  0.00  0.00    +0.000 C 
ATOM     26  C   UNL     1      -2.816  -5.142   1.316  0.00  0.00    +0.000 C 
ENDBRANCH  23  25
BRANCH  23  28
ATOM     27  C   UNL     1      -3.767  -1.540   3.150  0.00  0.00    +0.000 C 
ATOM     28  C   UNL     1      -4.151  -2.594   2.109  0.00  0.00    +0.000 C 
ENDBRANCH  23  28
ENDBRANCH  22  23
ENDBRANCH  21  22
ENDBRANCH  19  21
ENDBRANCH  17  19
ENDBRANCH   1  17
TORSDOF 8
ENDMDL
MODEL      182
REMARK  Name = ZINC13990322
REMARK  13 active torsions:
REMARK  status: ('A' for Active; 'I' for Inactive)
REMARK    1  A    between atoms: C_1  and  C_2
REMARK    2  A    between atoms: C_2  and  N_25
REMARK    3  A    between atoms: C_3  and  C_4
REMARK    4  A    between atoms: C_3  and  N_25
REMARK    5  A    between atoms: C_5  and  C_6
REMARK    6  A    between atoms: C_5  and  N_25
REMARK    7  A    between atoms: C_6  and  N_7
REMARK    8  A    between atoms: N_12  and  C_13
REMARK    9  A    between atoms: C_13  and  C_14
REMARK   10  A    between atoms: C_14  and  C_15
REMARK   11  A    between atoms: C_14  and  O_16
REMARK   12  A    between atoms: N_19  and  C_24
REMARK   13  A    between atoms: N_22  and  C_23
REMARK                            x       y       z     vdW  Elec       q    Type
REMARK                         _______ _______ _______ _____ _____    ______ ____
ROOT
ATOM      1  N   UNL     1      -2.395  -0.095   4.075  0.00  0.00    +0.000 N 
ATOM      2  C   UNL     1      -2.964   1.090   3.670  0.00  0.00    +0.000 A 
ATOM      3  N   UNL     1      -3.672   1.895   4.435  0.00  0.00    +0.000 NA
ATOM      4  C   UNL     1      -4.081   2.952   3.729  0.00  0.00    +0.000 A 
ATOM      5  C   UNL     1      -3.593   2.806   2.435  0.00  0.00    +0.000 A 
ATOM      6  N   UNL     1      -2.880   1.614   2.418  0.00  0.00    +0.000 N 
ATOM      7  C   UNL     1      -3.881   3.794   1.478  0.00  0.00    +0.000 A 
ATOM      8  O   UNL     1      -3.464   3.687   0.338  0.00  0.00    +0.000 OA
ATOM      9  N   UNL     1      -4.625   4.861   1.834  0.00  0.00    +0.000 N 
ATOM     10  C   UNL     1      -5.093   4.992   3.087  0.00  0.00    +0.000 A 
ATOM     11  O   UNL     1      -5.760   5.968   3.373  0.00  0.00    +0.000 OA
ATOM     12  N   UNL     1      -4.839   4.070   4.035  0.00  0.00    +0.000 N 
ATOM     13  C   UNL     1      -5.367   4.249   5.390  0.00  0.00    +0.000 C 
ATOM     14  C   UNL     1      -4.929   5.893   0.839  0.00  0.00    +0.000 C 
ATOM     15  H   UNL     1      -1.853  -0.661   3.407  0.00  0.00    +0.000 HD
ENDROOT
BRANCH   1  16
ATOM     16  C   UNL     1      -2.559  -0.552   5.457  0.00  0.00    +0.000 C 
BRANCH  16  17
ATOM     17  C   UNL     1      -1.834  -1.886   5.643  0.00  0.00    +0.000 C 
BRANCH  17  18
ATOM     18  N   UNL     1      -1.889  -2.260   7.072  0.00  0.00    +0.000 N 
ATOM     19  H   UNL     1      -1.714  -1.422   7.644  0.00  0.00    +0.000 HD
BRANCH  18  20
ATOM     20  C   UNL     1      -0.853  -3.270   7.370  0.00  0.00    +0.000 C 
ATOM     21  C   UNL     1       0.503  -2.568   7.469  0.00  0.00    +0.000 C 
ENDBRANCH  18  20
BRANCH  18  23
ATOM     22  C   UNL     1      -3.330  -2.963   8.920  0.00  0.00    +0.000 C 
ATOM     23  C   UNL     1      -3.227  -2.796   7.403  0.00  0.00    +0.000 C 
ENDBRANCH  18  23
ENDBRANCH  17  18
ENDBRANCH  16  17
ENDBRANCH   1  16
BRANCH   6  24
ATOM     24  C   UNL     1      -2.178   1.032   1.272  0.00  0.00    +0.000 C 
BRANCH  24  25
ATOM     25  C   UNL     1      -0.736   1.540   1.244  0.00  0.00    +0.000 C 
ATOM     26  C   UNL     1      -0.039   1.032  -0.020  0.00  0.00    +0.000 C 
BRANCH  25  27
ATOM     27  O   UNL     1      -0.040   1.061   2.397  0.00  0.00    +0.000 OA
ATOM     28  H   UNL     1      -0.040   0.071   2.396  0.00  0.00    +0.000 HD
ENDBRANCH  25  27
ENDBRANCH  24  25
ENDBRANCH   6  24
TORSDOF 8
ENDMDL
MODEL      183
REMARK  Name = ZINC32095517
REMARK  9 active torsions:
REMARK  status: ('A' for Active; 'I' for Inactive)
REMARK    1  A    between atoms: C_7  and  C_10
REMARK    2  A    between atoms: C_10  and  C_11
REMARK    3  A    between atoms: C_10  and  N_14
REMARK    4  A    between atoms: N_17  and  C_20
REMARK    5  A    between atoms: C_20  and  C_21
REMARK    6  A    between atoms: C_21  and  O_22
REMARK    7  A    between atoms: O_22  and  C_23
REMARK    8  A    between atoms: C_23  and  C_24
REMARK    9  A    between atoms: C_24  and  O_25
REMARK                            x       y       z     vdW  Elec       q    Type
REMARK                         _______ _______ _______ _____ _____    ______ ____
ROOT
ATOM      1  C   UNL     1      -2.813  -0.781   0.275  0.00  0.00    +0.000 C 
ENDROOT
BRANCH   1   8
ATOM      2  C   UNL     1       0.791   2.204   0.542  0.00  0.00    +0.000 A 
ATOM      3  C   UNL     1       2.022   1.563   0.596  0.00  0.00    +0.000 A 
ATOM      4  C   UNL     1       2.099   0.188   0.571  0.00  0.00    +0.000 A 
ATOM      5  C   UNL     1       0.934  -0.568   0.489  0.00  0.00    +0.000 A 
ATOM      6  C   UNL     1      -0.310   0.086   0.434  0.00  0.00    +0.000 A 
ATOM      7  C   UNL     1      -0.365   1.481   0.462  0.00  0.00    +0.000 A 
ATOM      8  C   UNL     1      -1.320  -0.972   0.354  0.00  0.00    +0.000 A 
ATOM      9  C   UNL     1      -0.664  -2.143   0.365  0.00  0.00    +0.000 A 
ATOM     10  N   UNL     1       0.684  -1.921   0.446  0.00  0.00    +0.000 N 
ATOM     11  H   UNL     1       1.404  -2.657   0.470  0.00  0.00    +0.000 HD
ENDBRANCH   1   8
BRANCH   1  12
ATOM     12  N   UNL     1      -3.434  -1.999  -0.261  0.00  0.00    +0.000 N 
ATOM     13  C   UNL     1      -2.861  -2.352  -1.567  0.00  0.00    +0.000 C 
ATOM     14  C   UNL     1      -3.476  -3.666  -2.054  0.00  0.00    +0.000 C 
ATOM     15  N   UNL     1      -4.935  -3.517  -2.145  0.00  0.00    +0.000 NA
ATOM     16  C   UNL     1      -5.508  -3.164  -0.839  0.00  0.00    +0.000 C 
ATOM     17  C   UNL     1      -4.893  -1.850  -0.352  0.00  0.00    +0.000 C 
ATOM     18  H   UNL     1      -3.234  -2.770   0.392  0.00  0.00    +0.000 HD
BRANCH  15  19
ATOM     19  C   UNL     1      -5.556  -4.735  -2.681  0.00  0.00    +0.000 C 
BRANCH  19  20
ATOM     20  C   UNL     1      -5.001  -5.957  -1.946  0.00  0.00    +0.000 C 
BRANCH  20  21
ATOM     21  O   UNL     1      -5.418  -5.921  -0.580  0.00  0.00    +0.000 OA
BRANCH  21  22
ATOM     22  C   UNL     1      -4.950  -7.024   0.199  0.00  0.00    +0.000 C 
BRANCH  22  23
ATOM     23  C   UNL     1      -5.454  -6.882   1.637  0.00  0.00    +0.000 C 
BRANCH  23  24
ATOM     24  O   UNL     1      -6.879  -6.984   1.654  0.00  0.00    +0.000 OA
ATOM     25  H   UNL     1      -7.152  -7.865   1.295  0.00  0.00    +0.000 HD
ENDBRANCH  23  24
ENDBRANCH  22  23
ENDBRANCH  21  22
ENDBRANCH  20  21
ENDBRANCH  19  20
ENDBRANCH  15  19
ENDBRANCH   1  12
BRANCH   1  26
ATOM     26  C   UNL     1      -3.357  -0.504   1.653  0.00  0.00    +0.000 C 
ATOM     27  O   UNL     1      -4.179  -1.245   2.138  0.00  0.00    +0.000 OA
ATOM     28  O   UNL     1      -2.930   0.567   2.341  0.00  0.00    +0.000 OA
ENDBRANCH   1  26
TORSDOF 9
ENDMDL
MODEL      184
REMARK  Name = ZINC05791983
REMARK  11 active torsions:
REMARK  status: ('A' for Active; 'I' for Inactive)
REMARK    1  A    between atoms: C_1  and  N_25
REMARK    2  A    between atoms: C_2  and  N_25
REMARK    3  A    between atoms: C_3  and  C_4
REMARK    4  A    between atoms: C_3  and  N_25
REMARK    5  A    between atoms: C_4  and  C_5
REMARK    6  A    between atoms: C_5  and  N_26
REMARK    7  A    between atoms: C_6  and  C_8
REMARK    8  A    between atoms: C_6  and  N_26
REMARK    9  A    between atoms: N_14  and  C_17
REMARK   10  A    between atoms: C_20  and  O_23
REMARK   11  A    between atoms: O_23  and  C_24
REMARK                            x       y       z     vdW  Elec       q    Type
REMARK                         _______ _______ _______ _____ _____    ______ ____
ROOT
ATOM      1  C   UNL     1       3.106  -1.169   7.422  0.00  0.00    +0.000 A 
ATOM      2  C   UNL     1       2.428  -0.556   8.633  0.00  0.00    +0.000 A 
ATOM      3  O   UNL     1       2.807  -0.801   9.758  0.00  0.00    +0.000 OA
ATOM      4  N   UNL     1       1.385   0.273   8.411  0.00  0.00    +0.000 N 
ATOM      5  C   UNL     1       0.957   0.558   7.176  0.00  0.00    +0.000 A 
ATOM      6  O   UNL     1       0.015   1.318   7.067  0.00  0.00    +0.000 OA
ATOM      7  N   UNL     1       1.487   0.062   6.051  0.00  0.00    +0.000 N 
ATOM      8  C   UNL     1       2.538  -0.784   6.069  0.00  0.00    +0.000 A 
ATOM      9  O   UNL     1       3.010  -1.222   5.042  0.00  0.00    +0.000 OA
ATOM     10  H   UNL     1       0.905   0.699   9.217  0.00  0.00    +0.000 HD
ENDROOT
BRANCH   7  11
ATOM     11  C   UNL     1       0.936   0.439   4.816  0.00  0.00    +0.000 A 
ATOM     12  C   UNL     1      -0.092  -0.308   4.258  0.00  0.00    +0.000 A 
ATOM     13  C   UNL     1      -0.633   0.063   3.043  0.00  0.00    +0.000 A 
ATOM     14  C   UNL     1      -0.149   1.182   2.380  0.00  0.00    +0.000 A 
ATOM     15  C   UNL     1       0.882   1.925   2.935  0.00  0.00    +0.000 A 
ATOM     16  C   UNL     1       1.420   1.558   4.153  0.00  0.00    +0.000 A 
BRANCH  14  17
ATOM     17  O   UNL     1      -0.682   1.546   1.184  0.00  0.00    +0.000 OA
ATOM     18  C   UNL     1      -0.135   2.709   0.557  0.00  0.00    +0.000 C 
ENDBRANCH  14  17
ENDBRANCH   7  11
BRANCH   1  19
ATOM     19  C   UNL     1       3.032  -2.668   7.553  0.00  0.00    +0.000 C 
ATOM     20  C   UNL     1       4.136  -3.370   7.729  0.00  0.00    +0.000 C 
BRANCH  19  21
ATOM     21  N   UNL     1       1.742  -3.272   7.478  0.00  0.00    +0.000 NA
ATOM     22  H   UNL     1       1.149  -2.868   8.216  0.00  0.00    +0.000 HD
ATOM     23  H   UNL     1       1.315  -3.020   6.575  0.00  0.00    +0.000 HD
BRANCH  21  24
ATOM     24  C   UNL     1       1.732  -4.769   7.614  0.00  0.00    +0.000 C 
BRANCH  24  25
ATOM     25  C   UNL     1       0.273  -5.220   7.508  0.00  0.00    +0.000 C 
BRANCH  25  26
ATOM     26  C   UNL     1       0.199  -6.742   7.641  0.00  0.00    +0.000 C 
BRANCH  26  29
ATOM     27  C   UNL     1      -1.736  -6.914   6.195  0.00  0.00    +0.000 C 
ATOM     28  C   UNL     1      -1.342  -8.593   7.895  0.00  0.00    +0.000 C 
ATOM     29  N   UNL     1      -1.217  -7.159   7.557  0.00  0.00    +0.000 N 
ATOM     30  H   UNL     1      -1.769  -6.608   8.230  0.00  0.00    +0.000 HD
ENDBRANCH  26  29
ENDBRANCH  25  26
ENDBRANCH  24  25
ENDBRANCH  21  24
ENDBRANCH  19  21
ENDBRANCH   1  19
TORSDOF 8
ENDMDL
MODEL      185
REMARK  Name = ZINC05089417
REMARK  10 active torsions:
REMARK  status: ('A' for Active; 'I' for Inactive)
REMARK    1  A    between atoms: C_1  and  O_2
REMARK    2  A    between atoms: O_2  and  C_3
REMARK    3  A    between atoms: C_7  and  O_9
REMARK    4  A    between atoms: O_9  and  C_10
REMARK    5  A    between atoms: C_10  and  C_11
REMARK    6  A    between atoms: C_14  and  S_17
REMARK    7  A    between atoms: N_15  and  N_16
REMARK    8  A    between atoms: S_17  and  C_18
REMARK    9  A    between atoms: C_18  and  C_19
REMARK   10  A    between atoms: C_19  and  C_21
REMARK                            x       y       z     vdW  Elec       q    Type
REMARK                         _______ _______ _______ _____ _____    ______ ____
ROOT
ATOM      1  C   UNL     1      -3.682  -0.964   0.014  0.00  0.00    +0.000 A 
ATOM      2  N   UNL     1      -4.396  -1.263  -1.034  0.00  0.00    +0.000 NA
ATOM      3  N   UNL     1      -5.528  -1.753  -0.671  0.00  0.00    +0.000 NA
ATOM      4  C   UNL     1      -5.597  -1.792   0.640  0.00  0.00    +0.000 A 
ATOM      5  N   UNL     1      -4.419  -1.294   1.118  0.00  0.00    +0.000 N 
ENDROOT
BRANCH   5   6
ATOM      6  N   UNL     1      -4.054  -1.154   2.426  0.00  0.00    +0.000 N 
ATOM      7  H   UNL     1      -3.117  -0.752   2.574  0.00  0.00    +0.000 HD
ATOM      8  H   UNL     1      -4.655  -1.422   3.219  0.00  0.00    +0.000 HD
ENDBRANCH   5   6
BRANCH   1   9
ATOM      9  C   UNL     1      -2.297  -0.369   0.011  0.00  0.00    +0.000 C 
BRANCH   9  10
ATOM     10  O   UNL     1      -2.391   1.057   0.019  0.00  0.00    +0.000 OA
BRANCH  10  15
ATOM     11  C   UNL     1      -0.049   3.845   0.024  0.00  0.00    +0.000 A 
ATOM     12  C   UNL     1       1.160   3.164   0.008  0.00  0.00    +0.000 A 
ATOM     13  C   UNL     1       1.175   1.782   0.000  0.00  0.00    +0.000 A 
ATOM     14  C   UNL     1      -0.013   1.076   0.008  0.00  0.00    +0.000 A 
ATOM     15  C   UNL     1      -1.224   1.753   0.017  0.00  0.00    +0.000 A 
ATOM     16  C   UNL     1      -1.242   3.139   0.031  0.00  0.00    +0.000 A 
BRANCH  11  18
ATOM     17  C   UNL     1       1.202   5.867   0.022  0.00  0.00    +0.000 C 
ATOM     18  O   UNL     1      -0.064   5.204   0.031  0.00  0.00    +0.000 OA
ENDBRANCH  11  18
ENDBRANCH  10  15
ENDBRANCH   9  10
ENDBRANCH   1   9
BRANCH   4  19
ATOM     19  S   UNL     1      -6.952  -2.382   1.600  0.00  0.00    +0.000 S 
BRANCH  19  20
ATOM     20  C   UNL     1      -8.089  -2.862   0.276  0.00  0.00    +0.000 C 
BRANCH  20  21
ATOM     21  C   UNL     1      -9.357  -3.412   0.878  0.00  0.00    +0.000 C 
ATOM     22  O   UNL     1      -9.479  -3.473   2.085  0.00  0.00    +0.000 OA
BRANCH  21  23
ATOM     23  C   UNL     1     -10.403  -3.857   0.039  0.00  0.00    +0.000 A 
ATOM     24  C   UNL     1     -10.406  -3.842  -1.346  0.00  0.00    +0.000 A 
ATOM     25  C   UNL     1     -11.630  -4.372  -1.756  0.00  0.00    +0.000 A 
ATOM     26  C   UNL     1     -12.342  -4.686  -0.645  0.00  0.00    +0.000 A 
ATOM     27  N   UNL     1     -11.612  -4.380   0.447  0.00  0.00    +0.000 N 
ATOM     28  H   UNL     1     -11.908  -4.514   1.425  0.00  0.00    +0.000 HD
ENDBRANCH  21  23
ENDBRANCH  20  21
ENDBRANCH  19  20
ENDBRANCH   4  19
TORSDOF 9
ENDMDL
MODEL      186
REMARK  Name = ZINC29748632
REMARK  8 active torsions:
REMARK  status: ('A' for Active; 'I' for Inactive)
REMARK    1  A    between atoms: C_1  and  N_2
REMARK    2  A    between atoms: C_3  and  S_8
REMARK    3  A    between atoms: S_8  and  C_9
REMARK    4  A    between atoms: C_9  and  C_10
REMARK    5  A    between atoms: N_12  and  C_13
REMARK    6  A    between atoms: C_13  and  C_14
REMARK    7  A    between atoms: C_18  and  N_20
REMARK    8  A    between atoms: C_21  and  C_23
REMARK                            x       y       z     vdW  Elec       q    Type
REMARK                         _______ _______ _______ _____ _____    ______ ____
ROOT
ATOM      1  C   UNL     1      -0.230   7.331  -0.991  0.00  0.00    +0.000 C 
ATOM      2  O   UNL     1      -0.160   7.994   0.022  0.00  0.00    +0.000 OA
ATOM      3  N   UNL     1      -0.207   5.985  -0.918  0.00  0.00    +0.000 N 
ATOM      4  H   UNL     1      -0.266   5.422  -1.779  0.00  0.00    +0.000 HD
ENDROOT
BRANCH   1   5
ATOM      5  C   UNL     1      -0.342   8.011  -2.330  0.00  0.00    +0.000 C 
BRANCH   5   6
ATOM      6  S   UNL     1      -0.346   9.806  -2.097  0.00  0.00    +0.000 S 
BRANCH   6   9
ATOM      7  C   UNL     1      -0.467  12.833  -3.369  0.00  0.00    +0.000 C 
ATOM      8  N   UNL     1      -0.522  11.630  -4.203  0.00  0.00    +0.000 N 
ATOM      9  C   UNL     1      -0.482  10.333  -3.772  0.00  0.00    +0.000 A 
ATOM     10  N   UNL     1      -0.551   9.542  -4.829  0.00  0.00    +0.000 N 
ATOM     11  C   UNL     1      -0.660  10.275  -5.941  0.00  0.00    +0.000 A 
ATOM     12  O   UNL     1      -0.755   9.837  -7.074  0.00  0.00    +0.000 OA
ATOM     13  N   UNL     1      -0.646  11.581  -5.601  0.00  0.00    +0.000 NA
ATOM     14  H   UNL     1      -0.524   8.513  -4.800  0.00  0.00    +0.000 HD
ENDBRANCH   6   9
ENDBRANCH   5   6
ENDBRANCH   1   5
BRANCH   3  15
ATOM     15  C   UNL     1      -0.099   5.323   0.384  0.00  0.00    +0.000 C 
BRANCH  15  16
ATOM     16  C   UNL     1      -0.095   3.829   0.189  0.00  0.00    +0.000 A 
ATOM     17  C   UNL     1       1.102   3.159   0.008  0.00  0.00    +0.000 A 
ATOM     18  C   UNL     1       1.110   1.788  -0.172  0.00  0.00    +0.000 A 
ATOM     19  C   UNL     1      -0.078   1.083  -0.170  0.00  0.00    +0.000 A 
ATOM     20  C   UNL     1      -1.281   1.753   0.007  0.00  0.00    +0.000 A 
ATOM     21  C   UNL     1      -1.286   3.130   0.192  0.00  0.00    +0.000 A 
BRANCH  20  22
ATOM     22  N   UNL     1      -2.487   1.043   0.003  0.00  0.00    +0.000 N 
ATOM     23  C   UNL     1      -2.530  -0.214   0.489  0.00  0.00    +0.000 C 
ATOM     24  O   UNL     1      -1.550  -0.694   1.017  0.00  0.00    +0.000 OA
ATOM     25  H   UNL     1      -3.341   1.480  -0.372  0.00  0.00    +0.000 HD
BRANCH  23  26
ATOM     26  C   UNL     1      -3.797  -1.022   0.377  0.00  0.00    +0.000 C 
ATOM     27  C   UNL     1      -4.553  -1.333   1.670  0.00  0.00    +0.000 C 
ATOM     28  C   UNL     1      -3.783  -2.441   0.948  0.00  0.00    +0.000 C 
ENDBRANCH  23  26
ENDBRANCH  20  22
ENDBRANCH  15  16
ENDBRANCH   3  15
TORSDOF 7
ENDMDL
MODEL      187
REMARK  Name = ZINC08739093
REMARK  9 active torsions:
REMARK  status: ('A' for Active; 'I' for Inactive)
REMARK    1  A    between atoms: C_1  and  C_2
REMARK    2  A    between atoms: C_7  and  C_18
REMARK    3  A    between atoms: C_12  and  C_13
REMARK    4  A    between atoms: C_13  and  C_14
REMARK    5  A    between atoms: C_14  and  O_16
REMARK    6  A    between atoms: O_16  and  C_17
REMARK    7  A    between atoms: C_18  and  N_26
REMARK    8  A    between atoms: C_19  and  C_20
REMARK    9  A    between atoms: C_19  and  N_26
REMARK                            x       y       z     vdW  Elec       q    Type
REMARK                         _______ _______ _______ _____ _____    ______ ____
ROOT
ATOM      1  C   UNL     1      -2.537  -0.471   0.010  0.00  0.00    +0.000 C 
ATOM      2  C   UNL     1      -2.505   1.036   0.019  0.00  0.00    +0.000 A 
ATOM      3  C   UNL     1      -1.233   1.761   0.018  0.00  0.00    +0.000 A 
ATOM      4  C   UNL     1      -0.013   1.076   0.008  0.00  0.00    +0.000 A 
ATOM      5  C   UNL     1       1.159   1.776   0.001  0.00  0.00    +0.000 A 
ATOM      6  C   UNL     1       1.148   3.170   0.008  0.00  0.00    +0.000 A 
ATOM      7  C   UNL     1      -0.051   3.864   0.024  0.00  0.00    +0.000 A 
ATOM      8  C   UNL     1      -1.250   3.168   0.032  0.00  0.00    +0.000 A 
ATOM      9  O   UNL     1      -2.429   3.826   0.047  0.00  0.00    +0.000 OA
ATOM     10  C   UNL     1      -3.599   3.167   0.035  0.00  0.00    +0.000 A 
ATOM     11  O   UNL     1      -4.638   3.803   0.043  0.00  0.00    +0.000 OA
ATOM     12  C   UNL     1      -3.655   1.758   0.028  0.00  0.00    +0.000 A 
ATOM     13  O   UNL     1       2.321   3.852   0.001  0.00  0.00    +0.000 OA
ENDROOT
BRANCH  12  14
ATOM     14  C   UNL     1      -4.989   1.056   0.029  0.00  0.00    +0.000 C 
BRANCH  14  15
ATOM     15  C   UNL     1      -5.427   0.813   1.451  0.00  0.00    +0.000 C 
ATOM     16  O   UNL     1      -4.729   1.174   2.368  0.00  0.00    +0.000 OA
BRANCH  15  17
ATOM     17  O   UNL     1      -6.594   0.196   1.697  0.00  0.00    +0.000 OA
ATOM     18  C   UNL     1      -6.952  -0.004   3.090  0.00  0.00    +0.000 C 
ENDBRANCH  15  17
ENDBRANCH  14  15
ENDBRANCH  12  14
BRANCH   7  19
ATOM     19  C   UNL     1      -0.051   5.371   0.033  0.00  0.00    +0.000 C 
BRANCH  19  20
ATOM     20  N   UNL     1      -0.065   5.863  -1.358  0.00  0.00    +0.000 N 
ATOM     21  H   UNL     1       0.770   5.516  -1.851  0.00  0.00    +0.000 HD
ATOM     22  H   UNL     1      -0.908   5.515  -1.836  0.00  0.00    +0.000 HD
BRANCH  20  23
ATOM     23  C   UNL     1      -0.065   7.338  -1.379  0.00  0.00    +0.000 C 
BRANCH  23  24
ATOM     24  C   UNL     1      -0.079   7.818  -2.832  0.00  0.00    +0.000 C 
ATOM     25  C   UNL     1       0.046   9.357  -2.891  0.00  0.00    +0.000 C 
ATOM     26  C   UNL     1      -0.873   9.764  -4.064  0.00  0.00    +0.000 C 
ATOM     27  C   UNL     1      -1.445   8.423  -4.575  0.00  0.00    +0.000 C 
ATOM     28  O   UNL     1      -1.354   7.528  -3.445  0.00  0.00    +0.000 OA
ENDBRANCH  23  24
ENDBRANCH  20  23
ENDBRANCH  19  20
ENDBRANCH   7  19
TORSDOF 7
ENDMDL
MODEL      188
REMARK  Name = ZINC04535658
REMARK  12 active torsions:
REMARK  status: ('A' for Active; 'I' for Inactive)
REMARK    1  A    between atoms: C_1  and  C_2
REMARK    2  A    between atoms: C_2  and  C_3
REMARK    3  A    between atoms: C_2  and  C_4
REMARK    4  A    between atoms: C_7  and  C_10
REMARK    5  A    between atoms: C_11  and  C_22
REMARK    6  A    between atoms: N_15  and  C_16
REMARK    7  A    between atoms: C_16  and  C_17
REMARK    8  A    between atoms: C_17  and  N_25
REMARK    9  A    between atoms: C_18  and  C_19
REMARK   10  A    between atoms: C_18  and  N_25
REMARK   11  A    between atoms: C_19  and  O_20
REMARK   12  A    between atoms: C_22  and  C_24
REMARK                            x       y       z     vdW  Elec       q    Type
REMARK                         _______ _______ _______ _____ _____    ______ ____
ROOT
ATOM      1  C   UNL     1      -2.289   3.290  -0.222  0.00  0.00    +0.000 C 
ATOM      2  C   UNL     1      -3.015   3.812  -1.440  0.00  0.00    +0.000 C 
ATOM      3  C   UNL     1      -4.280   3.329  -1.377  0.00  0.00    +0.000 C 
ATOM      4  C   UNL     1      -4.423   2.501  -0.159  0.00  0.00    +0.000 C 
ATOM      5  O   UNL     1      -5.439   1.928   0.180  0.00  0.00    +0.000 OA
ATOM      6  N   UNL     1      -3.260   2.476   0.518  0.00  0.00    +0.000 N 
ATOM      7  O   UNL     1      -5.256   3.565  -2.283  0.00  0.00    +0.000 OA
ENDROOT
BRANCH   1  11
ATOM      8  C   UNL     1       1.034   0.884  -1.415  0.00  0.00    +0.000 A 
ATOM      9  C   UNL     1       1.247   2.136  -0.871  0.00  0.00    +0.000 A 
ATOM     10  C   UNL     1       0.172   2.913  -0.480  0.00  0.00    +0.000 A 
ATOM     11  C   UNL     1      -1.117   2.441  -0.643  0.00  0.00    +0.000 A 
ATOM     12  C   UNL     1      -1.330   1.189  -1.188  0.00  0.00    +0.000 A 
ATOM     13  C   UNL     1      -0.255   0.410  -1.574  0.00  0.00    +0.000 A 
BRANCH   8  15
ATOM     14  C   UNL     1       2.194  -1.277  -1.048  0.00  0.00    +0.000 C 
ATOM     15  C   UNL     1       2.206   0.035  -1.836  0.00  0.00    +0.000 C 
ATOM     16  C   UNL     1       2.105  -0.268  -3.332  0.00  0.00    +0.000 C 
ENDBRANCH   8  15
ENDBRANCH   1  11
BRANCH   2  17
ATOM     17  C   UNL     1      -2.479   4.645  -2.450  0.00  0.00    +0.000 C 
ATOM     18  O   UNL     1      -3.136   4.900  -3.438  0.00  0.00    +0.000 OA
ATOM     19  C   UNL     1      -1.092   5.215  -2.299  0.00  0.00    +0.000 C 
ENDBRANCH   2  17
BRANCH   6  20
ATOM     20  C   UNL     1      -3.009   1.762   1.772  0.00  0.00    +0.000 C 
BRANCH  20  21
ATOM     21  C   UNL     1      -3.329   2.680   2.954  0.00  0.00    +0.000 C 
BRANCH  21  22
ATOM     22  N   UNL     1      -3.073   1.954   4.212  0.00  0.00    +0.000 N 
ATOM     23  H   UNL     1      -3.668   1.114   4.249  0.00  0.00    +0.000 HD
ATOM     24  H   UNL     1      -2.084   1.669   4.248  0.00  0.00    +0.000 HD
BRANCH  22  25
ATOM     25  C   UNL     1      -3.375   2.816   5.371  0.00  0.00    +0.000 C 
BRANCH  25  26
ATOM     26  C   UNL     1      -3.100   2.038   6.659  0.00  0.00    +0.000 C 
BRANCH  26  27
ATOM     27  O   UNL     1      -1.704   1.748   6.753  0.00  0.00    +0.000 OA
ATOM     28  H   UNL     1      -1.190   2.594   6.763  0.00  0.00    +0.000 HD
ENDBRANCH  26  27
ENDBRANCH  25  26
ENDBRANCH  22  25
ENDBRANCH  21  22
ENDBRANCH  20  21
ENDBRANCH   6  20
TORSDOF 9
ENDMDL
MODEL      189
REMARK  Name = ZINC22032849
REMARK  10 active torsions:
REMARK  status: ('A' for Active; 'I' for Inactive)
REMARK    1  A    between atoms: C_1  and  N_2
REMARK    2  A    between atoms: N_2  and  C_3
REMARK    3  A    between atoms: N_2  and  C_4
REMARK    4  A    between atoms: C_4  and  C_5
REMARK    5  A    between atoms: C_5  and  N_6
REMARK    6  A    between atoms: N_6  and  CA_7
REMARK    7  A    between atoms: CA_7  and  C_8
REMARK    8  A    between atoms: CA_7  and  C_20
REMARK    9  A    between atoms: C_8  and  C_9
REMARK   10  A    between atoms: N_11  and  C_12
REMARK                            x       y       z     vdW  Elec       q    Type
REMARK                         _______ _______ _______ _____ _____    ______ ____
ROOT
ATOM      1  C   UNL     1       2.586   5.418  -0.573  0.00  0.00    +0.000 C 
ENDROOT
BRANCH   1   2
ATOM      2  C   UNL     1       2.174   5.357  -2.022  0.00  0.00    +0.000 C 
ATOM      3  O   UNL     1       1.772   4.315  -2.494  0.00  0.00    +0.000 OA
ATOM      4  N   UNL     1       2.251   6.461  -2.791  0.00  0.00    +0.000 N 
ATOM      5  H   UNL     1       2.514   7.364  -2.372  0.00  0.00    +0.000 HD
BRANCH   4   6
ATOM      6  C   UNL     1       1.974   6.380  -4.161  0.00  0.00    +0.000 A 
ATOM      7  C   UNL     1       2.294   5.228  -4.868  0.00  0.00    +0.000 A 
ATOM      8  C   UNL     1       2.014   5.147  -6.218  0.00  0.00    +0.000 A 
ATOM      9  C   UNL     1       1.427   6.218  -6.870  0.00  0.00    +0.000 A 
ATOM     10  C   UNL     1       1.112   7.370  -6.168  0.00  0.00    +0.000 A 
ATOM     11  C   UNL     1       1.384   7.452  -4.816  0.00  0.00    +0.000 A 
ATOM     12 CL   UNL     1       0.374   8.710  -6.988  0.00  0.00    +0.000 Cl
ATOM     13 CL   UNL     1       1.083   6.116  -8.568  0.00  0.00    +0.000 Cl
ENDBRANCH   4   6
ENDBRANCH   1   2
BRANCH   1  14
ATOM     14  CA  UNL     1       2.402   4.041   0.068  0.00  0.00    +0.000 C 
BRANCH  14  15
ATOM     15  C   UNL     1       2.928   4.070   1.479  0.00  0.00    +0.000 C 
ATOM     16  O   UNL     1       2.190   3.827   2.405  0.00  0.00    +0.000 OA
ATOM     17  OXT UNL     1       4.218   4.365   1.709  0.00  0.00    +0.000 OA
ENDBRANCH  14  15
BRANCH  14  18
ATOM     18  N   UNL     1       0.974   3.695   0.084  0.00  0.00    +0.000 N 
ATOM     19  H1  UNL     1       0.534   4.115   0.915  0.00  0.00    +0.000 HD
ATOM     20  H2  UNL     1       0.523   4.077  -0.759  0.00  0.00    +0.000 HD
BRANCH  18  21
ATOM     21  C   UNL     1       0.786   2.239   0.117  0.00  0.00    +0.000 C 
BRANCH  21  22
ATOM     22  C   UNL     1      -0.710   1.919   0.134  0.00  0.00    +0.000 C 
BRANCH  22  24
ATOM     23  C   UNL     1      -0.407  -0.104   1.430  0.00  0.00    +0.000 C 
ATOM     24  N   UNL     1      -0.899   0.462   0.167  0.00  0.00    +0.000 NA
ATOM     25  C   UNL     1      -2.308   0.109  -0.055  0.00  0.00    +0.000 C 
ENDBRANCH  22  24
ENDBRANCH  21  22
ENDBRANCH  18  21
ENDBRANCH  14  18
ENDBRANCH   1  14
TORSDOF 8
ENDMDL
MODEL      190
REMARK  Name = ZINC05110799
REMARK  13 active torsions:
REMARK  status: ('A' for Active; 'I' for Inactive)
REMARK    1  A    between atoms: C_1  and  C_2
REMARK    2  A    between atoms: C_3  and  O_25
REMARK    3  A    between atoms: C_4  and  C_10
REMARK    4  A    between atoms: C_5  and  C_8
REMARK    5  A    between atoms: C_8  and  O_9
REMARK    6  A    between atoms: N_11  and  C_12
REMARK    7  A    between atoms: C_12  and  C_13
REMARK    8  A    between atoms: C_13  and  C_14
REMARK    9  A    between atoms: C_14  and  C_15
REMARK   10  A    between atoms: C_15  and  C_16
REMARK   11  A    between atoms: C_16  and  C_17
REMARK   12  A    between atoms: C_18  and  C_23
REMARK   13  A    between atoms: C_19  and  N_22
REMARK                            x       y       z     vdW  Elec       q    Type
REMARK                         _______ _______ _______ _____ _____    ______ ____
ROOT
ATOM      1  C   UNL     1       7.668   1.052  -2.952  0.00  0.00    +0.000 C 
ENDROOT
BRANCH   1   3
ATOM      2  C   UNL     1       8.753   2.127  -4.790  0.00  0.00    +0.000 C 
ATOM      3  N   UNL     1       8.142   1.081  -4.338  0.00  0.00    +0.000 NA
BRANCH   2   7
ATOM      4  C   UNL     1       9.296  -0.030  -9.278  0.00  0.00    +0.000 C 
ATOM      5  C   UNL     1       9.500   1.137  -8.346  0.00  0.00    +0.000 A 
ATOM      6  C   UNL     1       9.033   1.061  -7.041  0.00  0.00    +0.000 A 
ATOM      7  C   UNL     1       9.231   2.157  -6.186  0.00  0.00    +0.000 A 
ATOM      8  C   UNL     1       9.890   3.281  -6.698  0.00  0.00    +0.000 A 
ATOM      9  C   UNL     1      10.325   3.265  -8.007  0.00  0.00    +0.000 A 
ATOM     10  N   UNL     1      10.119   2.215  -8.780  0.00  0.00    +0.000 NA
BRANCH   6  11
ATOM     11  O   UNL     1       8.395  -0.053  -6.600  0.00  0.00    +0.000 OA
ATOM     12  H   UNL     1       9.034  -0.790  -6.766  0.00  0.00    +0.000 HD
ENDBRANCH   6  11
BRANCH   8  13
ATOM     13  C   UNL     1      10.126   4.490  -5.830  0.00  0.00    +0.000 C 
BRANCH  13  14
ATOM     14  O   UNL     1      10.812   5.492  -6.584  0.00  0.00    +0.000 OA
ATOM     15  H   UNL     1      10.264   5.750  -7.367  0.00  0.00    +0.000 HD
ENDBRANCH  13  14
ENDBRANCH   8  13
ENDBRANCH   2   7
ENDBRANCH   1   3
BRANCH   1  16
ATOM     16  C   UNL     1       6.139   0.983  -2.938  0.00  0.00    +0.000 C 
BRANCH  16  17
ATOM     17  C   UNL     1       5.644   0.953  -1.490  0.00  0.00    +0.000 C 
BRANCH  17  18
ATOM     18  C   UNL     1       4.116   0.884  -1.476  0.00  0.00    +0.000 C 
BRANCH  18  19
ATOM     19  C   UNL     1       3.621   0.853  -0.028  0.00  0.00    +0.000 C 
BRANCH  19  20
ATOM     20  C   UNL     1       2.115   0.786  -0.014  0.00  0.00    +0.000 A 
ATOM     21  C   UNL     1       1.338  -0.396  -0.013  0.00  0.00    +0.000 A 
ATOM     22  C   UNL     1       0.002  -0.004   0.002  0.00  0.00    +0.000 A 
ATOM     23  N   UNL     1      -0.016   1.345   0.009  0.00  0.00    +0.000 N 
ATOM     24  N   UNL     1       1.304   1.806  -0.001  0.00  0.00    +0.000 NA
ATOM     25  H   UNL     1      -0.860   1.936   0.021  0.00  0.00    +0.000 HD
BRANCH  22  26
ATOM     26  N   UNL     1      -1.098  -0.840   0.008  0.00  0.00    +0.000 N 
ATOM     27  H   UNL     1      -0.887  -1.848   0.001  0.00  0.00    +0.000 HD
ATOM     28  H   UNL     1      -2.069  -0.496   0.019  0.00  0.00    +0.000 HD
ENDBRANCH  22  26
BRANCH  21  29
ATOM     29  C   UNL     1       1.831  -1.740  -0.025  0.00  0.00    +0.000 C 
ATOM     30  N   UNL     1       2.223  -2.806  -0.035  0.00  0.00    +0.000 NA
ENDBRANCH  21  29
ENDBRANCH  19  20
ENDBRANCH  18  19
ENDBRANCH  17  18
ENDBRANCH  16  17
ENDBRANCH   1  16
TORSDOF 12
ENDMDL
MODEL      191
REMARK  Name = ZINC12611904
REMARK  14 active torsions:
REMARK  status: ('A' for Active; 'I' for Inactive)
REMARK    1  A    between atoms: C_1  and  C_2
REMARK    2  A    between atoms: C_3  and  C_15
REMARK    3  A    between atoms: C_5  and  C_7
REMARK    4  A    between atoms: C_7  and  C_8
REMARK    5  A    between atoms: C_7  and  O_14
REMARK    6  A    between atoms: C_8  and  C_9
REMARK    7  A    between atoms: C_8  and  O_13
REMARK    8  A    between atoms: C_9  and  C_10
REMARK    9  A    between atoms: C_9  and  O_12
REMARK   10  A    between atoms: C_10  and  O_11
REMARK   11  A    between atoms: C_15  and  O_17
REMARK   12  A    between atoms: O_17  and  C_18
REMARK   13  A    between atoms: C_18  and  C_19
REMARK   14  A    between atoms: C_24  and  C_25
REMARK                            x       y       z     vdW  Elec       q    Type
REMARK                         _______ _______ _______ _____ _____    ______ ____
ROOT
ATOM      1  C   UNL     1      -4.292  -5.243   0.026  0.00  0.00    +0.000 C 
ATOM      2  C   UNL     1      -2.802  -5.469   0.004  0.00  0.00    +0.000 A 
ATOM      3  C   UNL     1      -1.847  -4.494  -0.005  0.00  0.00    +0.000 A 
ATOM      4  C   UNL     1      -0.558  -5.203  -0.020  0.00  0.00    +0.000 A 
ATOM      5  C   UNL     1      -0.857  -6.511  -0.025  0.00  0.00    +0.000 A 
ATOM      6  O   UNL     1      -2.191  -6.657  -0.014  0.00  0.00    +0.000 OA
ENDROOT
BRANCH   3   7
ATOM      7  C   UNL     1      -2.061  -3.037   0.005  0.00  0.00    +0.000 C 
ATOM      8  O   UNL     1      -3.191  -2.590   0.017  0.00  0.00    +0.000 OA
BRANCH   7   9
ATOM      9  O   UNL     1      -1.005  -2.200  -0.001  0.00  0.00    +0.000 OA
BRANCH   9  10
ATOM     10  C   UNL     1      -1.292  -0.777   0.010  0.00  0.00    +0.000 C 
BRANCH  10  11
ATOM     11  C   UNL     1       0.002  -0.004   0.002  0.00  0.00    +0.000 A 
ATOM     12  C   UNL     1       1.208  -0.674  -0.013  0.00  0.00    +0.000 A 
ATOM     13  C   UNL     1       2.396   0.034  -0.021  0.00  0.00    +0.000 A 
ATOM     14  C   UNL     1       2.385   1.417  -0.014  0.00  0.00    +0.000 A 
ATOM     15  C   UNL     1       1.187   2.100   0.002  0.00  0.00    +0.000 A 
ATOM     16  C   UNL     1      -0.017   1.392   0.010  0.00  0.00    +0.000 A 
BRANCH  16  17
ATOM     17  C   UNL     1      -1.265   2.094   0.019  0.00  0.00    +0.000 C 
ATOM     18  N   UNL     1      -2.255   2.651   0.027  0.00  0.00    +0.000 NA
ENDBRANCH  16  17
ENDBRANCH  10  11
ENDBRANCH   9  10
ENDBRANCH   7   9
ENDBRANCH   3   7
BRANCH   5  19
ATOM     19  C   UNL     1       0.145  -7.636  -0.040  0.00  0.00    +0.000 C 
BRANCH  19  20
ATOM     20  O   UNL     1      -0.355  -8.730   0.732  0.00  0.00    +0.000 OA
ATOM     21  H   UNL     1      -1.209  -9.045   0.343  0.00  0.00    +0.000 HD
ENDBRANCH  19  20
BRANCH  19  22
ATOM     22  C   UNL     1       0.378  -8.092  -1.481  0.00  0.00    +0.000 C 
BRANCH  22  23
ATOM     23  O   UNL     1       0.878  -6.998  -2.252  0.00  0.00    +0.000 OA
ATOM     24  H   UNL     1       1.733  -6.683  -1.865  0.00  0.00    +0.000 HD
ENDBRANCH  22  23
BRANCH  22  25
ATOM     25  C   UNL     1       1.396  -9.234  -1.496  0.00  0.00    +0.000 C 
BRANCH  25  26
ATOM     26  O   UNL     1       0.896 -10.328  -0.725  0.00  0.00    +0.000 OA
ATOM     27  H   UNL     1       0.041 -10.644  -1.113  0.00  0.00    +0.000 HD
ENDBRANCH  25  26
BRANCH  25  28
ATOM     28  C   UNL     1       1.629  -9.691  -2.938  0.00  0.00    +0.000 C 
BRANCH  28  29
ATOM     29  O   UNL     1       2.663 -10.676  -2.964  0.00  0.00    +0.000 OA
ATOM     30  H   UNL     1       2.395 -11.453  -2.412  0.00  0.00    +0.000 HD
ENDBRANCH  28  29
ENDBRANCH  25  28
ENDBRANCH  22  25
ENDBRANCH  19  22
ENDBRANCH   5  19
TORSDOF 13
ENDMDL
MODEL      192
REMARK  Name = ZINC16900884
REMARK  9 active torsions:
REMARK  status: ('A' for Active; 'I' for Inactive)
REMARK    1  A    between atoms: C_1  and  C_2
REMARK    2  A    between atoms: C_2  and  O_3
REMARK    3  A    between atoms: O_3  and  C_4
REMARK    4  A    between atoms: C_4  and  C_6
REMARK    5  A    between atoms: C_6  and  C_7
REMARK    6  A    between atoms: C_16  and  S_19
REMARK    7  A    between atoms: S_19  and  C_20
REMARK    8  A    between atoms: C_20  and  C_21
REMARK    9  A    between atoms: C_21  and  N_22
REMARK                            x       y       z     vdW  Elec       q    Type
REMARK                         _______ _______ _______ _____ _____    ______ ____
ROOT
ATOM      1  C   UNL     1      -0.718   1.572   1.248  0.00  0.00    +0.000 A 
ATOM      2  C   UNL     1      -1.130   0.698   2.200  0.00  0.00    +0.000 A 
ATOM      3  S   UNL     1      -1.870   1.817   3.380  0.00  0.00    +0.000 S 
ATOM      4  C   UNL     1      -1.565   3.291   2.514  0.00  0.00    +0.000 A 
ATOM      5  N   UNL     1      -0.944   2.857   1.435  0.00  0.00    +0.000 NA
ATOM      6  N   UNL     1      -1.889   4.599   2.870  0.00  0.00    +0.000 N 
ATOM      7  C   UNL     1      -1.593   5.654   2.101  0.00  0.00    +0.000 C 
ATOM      8  O   UNL     1      -1.024   5.606   1.032  0.00  0.00    +0.000 OA
ATOM      9  C   UNL     1      -2.081   6.917   2.778  0.00  0.00    +0.000 C 
ATOM     10  C   UNL     1      -2.718   6.402   4.085  0.00  0.00    +0.000 C 
ATOM     11  C   UNL     1      -2.527   4.903   4.007  0.00  0.00    +0.000 C 
ATOM     12  O   UNL     1      -2.893   4.104   4.843  0.00  0.00    +0.000 OA
ENDROOT
BRANCH   1  13
ATOM     13  C   UNL     1      -0.013   1.086   0.008  0.00  0.00    +0.000 C 
BRANCH  13  14
ATOM     14  C   UNL     1      -0.742   1.585  -1.213  0.00  0.00    +0.000 C 
ATOM     15  O   UNL     1      -1.732   2.266  -1.089  0.00  0.00    +0.000 OA
BRANCH  14  16
ATOM     16  O   UNL     1      -0.290   1.274  -2.438  0.00  0.00    +0.000 OA
BRANCH  16  18
ATOM     17  C   UNL     1      -0.382   1.333  -4.871  0.00  0.00    +0.000 C 
ATOM     18  C   UNL     1      -1.042   1.789  -3.568  0.00  0.00    +0.000 C 
ENDBRANCH  16  18
ENDBRANCH  14  16
ENDBRANCH  13  14
ENDBRANCH   1  13
BRANCH  10  19
ATOM     19  S   UNL     1      -4.484   6.814   4.141  0.00  0.00    +0.000 S 
BRANCH  19  20
ATOM     20  C   UNL     1      -5.009   6.273   5.790  0.00  0.00    +0.000 C 
BRANCH  20  21
ATOM     21  C   UNL     1      -6.500   6.565   5.972  0.00  0.00    +0.000 C 
BRANCH  21  22
ATOM     22  N   UNL     1      -6.926   6.127   7.308  0.00  0.00    +0.000 N 
ATOM     23  H   UNL     1      -6.387   6.634   8.025  0.00  0.00    +0.000 HD
ATOM     24  H   UNL     1      -6.760   5.115   7.407  0.00  0.00    +0.000 HD
ATOM     25  H   UNL     1      -7.929   6.323   7.431  0.00  0.00    +0.000 HD
ENDBRANCH  21  22
ENDBRANCH  20  21
ENDBRANCH  19  20
ENDBRANCH  10  19
TORSDOF 8
ENDMDL
MODEL      193
REMARK  Name = ZINC04823412
REMARK  11 active torsions:
REMARK  status: ('A' for Active; 'I' for Inactive)
REMARK    1  A    between atoms: C_1  and  C_2
REMARK    2  A    between atoms: C_5  and  N_15
REMARK    3  A    between atoms: C_7  and  C_8
REMARK    4  A    between atoms: C_8  and  N_25
REMARK    5  A    between atoms: C_9  and  C_10
REMARK    6  A    between atoms: C_9  and  N_25
REMARK    7  A    between atoms: C_10  and  O_11
REMARK    8  A    between atoms: C_12  and  C_13
REMARK    9  A    between atoms: C_12  and  N_25
REMARK   10  A    between atoms: C_13  and  O_14
REMARK   11  A    between atoms: N_15  and  C_16
REMARK                            x       y       z     vdW  Elec       q    Type
REMARK                         _______ _______ _______ _____ _____    ______ ____
ROOT
ATOM      1  C   UNL     1      -1.973   2.356   0.042  0.00  0.00    +0.000 C 
ATOM      2  C   UNL     1      -0.570   1.965  -0.343  0.00  0.00    +0.000 A 
ATOM      3  C   UNL     1       0.427   2.923  -0.381  0.00  0.00    +0.000 A 
ATOM      4  C   UNL     1       1.714   2.568  -0.734  0.00  0.00    +0.000 A 
ATOM      5  C   UNL     1       2.007   1.248  -1.051  0.00  0.00    +0.000 A 
ATOM      6  C   UNL     1       1.004   0.289  -1.012  0.00  0.00    +0.000 A 
ATOM      7  C   UNL     1      -0.283   0.651  -0.663  0.00  0.00    +0.000 A 
ENDROOT
BRANCH   5   8
ATOM      8  N   UNL     1       3.309   0.886  -1.409  0.00  0.00    +0.000 N 
ATOM      9  H   UNL     1       3.901   1.546  -1.933  0.00  0.00    +0.000 HD
BRANCH   8  10
ATOM     10  C   UNL     1       3.802  -0.362  -1.060  0.00  0.00    +0.000 A 
ATOM     11  C   UNL     1       5.054  -0.786  -1.510  0.00  0.00    +0.000 A 
ATOM     12  C   UNL     1       5.508  -2.061  -1.133  0.00  0.00    +0.000 A 
ATOM     13  N   UNL     1       6.722  -2.223  -1.691  0.00  0.00    +0.000 N 
ATOM     14  C   UNL     1       7.041  -1.157  -2.372  0.00  0.00    +0.000 A 
ATOM     15  N   UNL     1       6.049  -0.242  -2.293  0.00  0.00    +0.000 NA
ATOM     16  N   UNL     1       4.724  -2.817  -0.358  0.00  0.00    +0.000 NA
ATOM     17  C   UNL     1       3.553  -2.375   0.043  0.00  0.00    +0.000 A 
ATOM     18  N   UNL     1       3.094  -1.181  -0.287  0.00  0.00    +0.000 NA
ATOM     19  H   UNL     1       7.311  -3.062  -1.595  0.00  0.00    +0.000 HD
ENDBRANCH   8  10
ENDBRANCH   5   8
BRANCH   7  20
ATOM     20  C   UNL     1      -1.374  -0.388  -0.627  0.00  0.00    +0.000 C 
BRANCH  20  21
ATOM     21  N   UNL     1      -2.179  -0.278  -1.861  0.00  0.00    +0.000 N 
ATOM     22  H   UNL     1      -2.475   0.701  -1.981  0.00  0.00    +0.000 HD
BRANCH  21  23
ATOM     23  C   UNL     1      -1.369  -0.681  -3.030  0.00  0.00    +0.000 C 
BRANCH  23  24
ATOM     24  C   UNL     1      -2.068  -0.200  -4.303  0.00  0.00    +0.000 C 
BRANCH  24  25
ATOM     25  O   UNL     1      -2.130   1.228  -4.301  0.00  0.00    +0.000 OA
ATOM     26  H   UNL     1      -1.213   1.599  -4.269  0.00  0.00    +0.000 HD
ENDBRANCH  24  25
ENDBRANCH  23  24
ENDBRANCH  21  23
BRANCH  21  27
ATOM     27  C   UNL     1      -3.380  -1.134  -1.759  0.00  0.00    +0.000 C 
BRANCH  27  28
ATOM     28  C   UNL     1      -4.418  -0.419  -0.892  0.00  0.00    +0.000 C 
BRANCH  28  29
ATOM     29  O   UNL     1      -4.816   0.796  -1.530  0.00  0.00    +0.000 OA
ATOM     30  H   UNL     1      -5.210   0.592  -2.415  0.00  0.00    +0.000 HD
ENDBRANCH  28  29
ENDBRANCH  27  28
ENDBRANCH  21  27
ENDBRANCH  20  21
ENDBRANCH   7  20
TORSDOF 10
ENDMDL
MODEL      194
REMARK  Name = ZINC15356870
REMARK  9 active torsions:
REMARK  status: ('A' for Active; 'I' for Inactive)
REMARK    1  A    between atoms: C_1  and  O_2
REMARK    2  A    between atoms: O_2  and  C_3
REMARK    3  A    between atoms: C_7  and  C_9
REMARK    4  A    between atoms: C_12  and  C_14
REMARK    5  A    between atoms: C_14  and  N_26
REMARK    6  A    between atoms: C_15  and  C_16
REMARK    7  A    between atoms: C_15  and  N_26
REMARK    8  A    between atoms: C_16  and  N_17
REMARK    9  A    between atoms: C_18  and  C_20
REMARK                            x       y       z     vdW  Elec       q    Type
REMARK                         _______ _______ _______ _____ _____    ______ ____
ROOT
ATOM      1  N   UNL     1       1.368   2.028  -0.000  0.00  0.00    +0.000 N 
ATOM      2  H   UNL     1       1.847   1.688  -0.846  0.00  0.00    +0.000 HD
ATOM      3  H   UNL     1       1.864   1.678   0.832  0.00  0.00    +0.000 HD
ENDROOT
BRANCH   1   4
ATOM      4  C   UNL     1       1.379   3.503   0.008  0.00  0.00    +0.000 C 
BRANCH   4   8
ATOM      5  C   UNL     1       4.779   4.649   0.696  0.00  0.00    +0.000 A 
ATOM      6  C   UNL     1       4.808   4.671  -0.663  0.00  0.00    +0.000 A 
ATOM      7  C   UNL     1       3.541   4.240  -1.104  0.00  0.00    +0.000 A 
ATOM      8  C   UNL     1       2.806   3.987  -0.003  0.00  0.00    +0.000 A 
ATOM      9  O   UNL     1       3.558   4.232   1.082  0.00  0.00    +0.000 OA
BRANCH   5  14
ATOM     10  C   UNL     1       6.778   5.298   3.812  0.00  0.00    +0.000 A 
ATOM     11  C   UNL     1       7.988   5.713   3.272  0.00  0.00    +0.000 A 
ATOM     12  C   UNL     1       8.152   5.782   1.901  0.00  0.00    +0.000 A 
ATOM     13  C   UNL     1       7.114   5.437   1.060  0.00  0.00    +0.000 A 
ATOM     14  C   UNL     1       5.894   5.019   1.593  0.00  0.00    +0.000 A 
ATOM     15  C   UNL     1       5.728   4.955   2.978  0.00  0.00    +0.000 A 
BRANCH  10  17
ATOM     16  C   UNL     1       7.746   5.606   5.962  0.00  0.00    +0.000 C 
ATOM     17  O   UNL     1       6.623   5.232   5.161  0.00  0.00    +0.000 OA
ENDBRANCH  10  17
ENDBRANCH   5  14
ENDBRANCH   4   8
ENDBRANCH   1   4
BRANCH   1  18
ATOM     18  C   UNL     1      -0.019   1.526   0.010  0.00  0.00    +0.000 C 
BRANCH  18  19
ATOM     19  C   UNL     1       0.002  -0.004   0.002  0.00  0.00    +0.000 C 
BRANCH  19  20
ATOM     20  N   UNL     1      -1.372  -0.511   0.012  0.00  0.00    +0.000 N 
ATOM     21  C   UNL     1      -1.601  -1.839   0.007  0.00  0.00    +0.000 C 
ATOM     22  O   UNL     1      -0.666  -2.616  -0.006  0.00  0.00    +0.000 OA
ATOM     23  H   UNL     1      -2.164   0.147   0.024  0.00  0.00    +0.000 HD
BRANCH  21  24
ATOM     24  C   UNL     1      -2.990  -2.352   0.018  0.00  0.00    +0.000 A 
ATOM     25  C   UNL     1      -3.460  -3.756   0.015  0.00  0.00    +0.000 A 
ATOM     26  N   UNL     1      -4.766  -3.620   0.029  0.00  0.00    +0.000 NA
ATOM     27  O   UNL     1      -5.048  -2.446   0.038  0.00  0.00    +0.000 OA
ATOM     28  N   UNL     1      -4.118  -1.675   0.038  0.00  0.00    +0.000 NA
ATOM     29  N   UNL     1      -2.708  -4.923   0.002  0.00  0.00    +0.000 N 
ATOM     30  H   UNL     1      -1.692  -4.757  -0.007  0.00  0.00    +0.000 HD
ATOM     31  H   UNL     1      -3.102  -5.875   0.000  0.00  0.00    +0.000 HD
ENDBRANCH  21  24
ENDBRANCH  19  20
ENDBRANCH  18  19
ENDBRANCH   1  18
TORSDOF 8
ENDMDL
MODEL      195
REMARK  Name = ZINC26450247
REMARK  13 active torsions:
REMARK  status: ('A' for Active; 'I' for Inactive)
REMARK    1  A    between atoms: C_1  and  C_2
REMARK    2  A    between atoms: C_4  and  C_25
REMARK    3  A    between atoms: C_6  and  N_12
REMARK    4  A    between atoms: C_13  and  C_15
REMARK    5  A    between atoms: C_15  and  N_16
REMARK    6  A    between atoms: N_16  and  C_17
REMARK    7  A    between atoms: N_16  and  C_21
REMARK    8  A    between atoms: C_17  and  C_18
REMARK    9  A    between atoms: C_18  and  O_19
REMARK   10  A    between atoms: O_19  and  C_20
REMARK   11  A    between atoms: C_21  and  C_22
REMARK   12  A    between atoms: C_22  and  C_23
REMARK   13  A    between atoms: C_22  and  C_24
REMARK                            x       y       z     vdW  Elec       q    Type
REMARK                         _______ _______ _______ _____ _____    ______ ____
ROOT
ATOM      1  N   UNL     1      -0.308   3.055   6.056  0.00  0.00    +0.000 N 
ATOM      2  C   UNL     1       0.760   3.084   6.878  0.00  0.00    +0.000 C 
ATOM      3  O   UNL     1       1.849   2.743   6.468  0.00  0.00    +0.000 OA
ATOM      4  H   UNL     1      -1.233   3.344   6.404  0.00  0.00    +0.000 HD
ENDROOT
BRANCH   1  10
ATOM      5  C   UNL     1      -0.750   1.372   0.098  0.00  0.00    +0.000 C 
ATOM      6  C   UNL     1      -1.353   1.876   1.384  0.00  0.00    +0.000 A 
ATOM      7  C   UNL     1      -0.512   2.059   2.570  0.00  0.00    +0.000 A 
ATOM      8  C   UNL     1       0.790   1.890   2.883  0.00  0.00    +0.000 A 
ATOM      9  O   UNL     1       0.983   2.235   4.170  0.00  0.00    +0.000 OA
ATOM     10  C   UNL     1      -0.162   2.636   4.745  0.00  0.00    +0.000 A 
ATOM     11  C   UNL     1      -1.163   2.558   3.807  0.00  0.00    +0.000 A 
ATOM     12  C   UNL     1      -2.595   2.831   3.753  0.00  0.00    +0.000 A 
ATOM     13  O   UNL     1      -3.186   3.243   4.736  0.00  0.00    +0.000 OA
ATOM     14  N   UNL     1      -3.252   2.619   2.594  0.00  0.00    +0.000 N 
ATOM     15  N   UNL     1      -2.619   2.154   1.444  0.00  0.00    +0.000 NA
ATOM     16  C   UNL     1       1.857   1.395   1.942  0.00  0.00    +0.000 C 
ATOM     17  H   UNL     1      -4.264   2.809   2.558  0.00  0.00    +0.000 HD
ENDBRANCH   1  10
BRANCH   2  18
ATOM     18  C   UNL     1       0.601   3.540   8.305  0.00  0.00    +0.000 C 
BRANCH  18  19
ATOM     19  N   UNL     1       1.879   3.388   9.013  0.00  0.00    +0.000 N 
ATOM     20  H   UNL     1       2.290   2.486   8.735  0.00  0.00    +0.000 HD
BRANCH  19  21
ATOM     21  C   UNL     1       1.675   3.361  10.468  0.00  0.00    +0.000 C 
BRANCH  21  22
ATOM     22  C   UNL     1       1.118   1.997  10.880  0.00  0.00    +0.000 C 
ATOM     23  C   UNL     1       2.151   0.911  10.573  0.00  0.00    +0.000 C 
ATOM     24  C   UNL     1       0.813   2.002  12.379  0.00  0.00    +0.000 C 
ENDBRANCH  21  22
ENDBRANCH  19  21
BRANCH  19  25
ATOM     25  C   UNL     1       2.820   4.450   8.633  0.00  0.00    +0.000 C 
BRANCH  25  26
ATOM     26  C   UNL     1       4.208   4.124   9.189  0.00  0.00    +0.000 C 
BRANCH  26  27
ATOM     27  O   UNL     1       4.704   2.938   8.566  0.00  0.00    +0.000 OA
ATOM     28  C   UNL     1       6.002   2.544   9.017  0.00  0.00    +0.000 C 
ENDBRANCH  26  27
ENDBRANCH  25  26
ENDBRANCH  19  25
ENDBRANCH  18  19
ENDBRANCH   2  18
TORSDOF 8
ENDMDL
MODEL      196
REMARK  Name = ZINC06491694
REMARK  10 active torsions:
REMARK  status: ('A' for Active; 'I' for Inactive)
REMARK    1  A    between atoms: C_1  and  C_2
REMARK    2  A    between atoms: C_2  and  C_3
REMARK    3  A    between atoms: C_2  and  N_26
REMARK    4  A    between atoms: C_3  and  C_4
REMARK    5  A    between atoms: C_4  and  C_5
REMARK    6  A    between atoms: C_5  and  C_6
REMARK    7  A    between atoms: C_6  and  N_7
REMARK    8  A    between atoms: N_7  and  C_8
REMARK    9  A    between atoms: C_17  and  C_23
REMARK   10  A    between atoms: N_19  and  C_20
REMARK                            x       y       z     vdW  Elec       q    Type
REMARK                         _______ _______ _______ _____ _____    ______ ____
ROOT
ATOM      1  C   UNL     1      -0.513   0.639   5.004  0.00  0.00    +0.000 A 
ATOM      2  C   UNL     1       0.737   0.047   5.099  0.00  0.00    +0.000 A 
ATOM      3  C   UNL     1       1.339  -0.102   6.342  0.00  0.00    +0.000 A 
ATOM      4  C   UNL     1       0.665   0.354   7.490  0.00  0.00    +0.000 A 
ATOM      5  C   UNL     1      -0.594   0.949   7.380  0.00  0.00    +0.000 A 
ATOM      6  C   UNL     1      -1.171   1.093   6.150  0.00  0.00    +0.000 A 
ATOM      7  F   UNL     1      -2.387   1.672   6.042  0.00  0.00    +0.000 F 
ATOM      8  C   UNL     1       1.315   0.189   8.801  0.00  0.00    +0.000 A 
ATOM      9  O   UNL     1       0.777   0.565   9.828  0.00  0.00    +0.000 OA
ATOM     10  C   UNL     1       2.642  -0.449   8.820  0.00  0.00    +0.000 A 
ATOM     11  C   UNL     1       3.204  -0.855   7.627  0.00  0.00    +0.000 A 
ATOM     12  N   UNL     1       2.582  -0.689   6.452  0.00  0.00    +0.000 N 
ENDROOT
BRANCH  10  13
ATOM     13  C   UNL     1       3.356  -0.649  10.088  0.00  0.00    +0.000 C 
ATOM     14  O   UNL     1       2.852  -0.288  11.133  0.00  0.00    +0.000 OA
ATOM     15  O   UNL     1       4.571  -1.235  10.093  0.00  0.00    +0.000 OA
ENDBRANCH  10  13
BRANCH  12  16
ATOM     16  C   UNL     1       3.251  -1.150   5.233  0.00  0.00    +0.000 C 
ATOM     17  C   UNL     1       4.454  -2.080   5.396  0.00  0.00    +0.000 C 
ATOM     18  C   UNL     1       4.663  -0.628   4.961  0.00  0.00    +0.000 C 
ENDBRANCH  12  16
BRANCH   1  19
ATOM     19  N   UNL     1      -1.114   0.787   3.757  0.00  0.00    +0.000 N 
ATOM     20  H   UNL     1      -2.043   1.226   3.682  0.00  0.00    +0.000 HD
BRANCH  19  21
ATOM     21  C   UNL     1      -0.426   0.319   2.551  0.00  0.00    +0.000 C 
BRANCH  21  22
ATOM     22  C   UNL     1      -1.298   0.599   1.326  0.00  0.00    +0.000 C 
BRANCH  22  23
ATOM     23  C   UNL     1      -0.579   0.110   0.067  0.00  0.00    +0.000 C 
BRANCH  23  24
ATOM     24  C   UNL     1      -1.450   0.391  -1.159  0.00  0.00    +0.000 C 
BRANCH  24  26
ATOM     25  C   UNL     1      -1.653   0.068  -3.629  0.00  0.00    +0.000 C 
ATOM     26  C   UNL     1      -0.732  -0.099  -2.419  0.00  0.00    +0.000 C 
BRANCH  26  27
ATOM     27  N   UNL     1       0.503   0.685  -2.600  0.00  0.00    +0.000 N 
ATOM     28  H   UNL     1       0.258   1.679  -2.711  0.00  0.00    +0.000 HD
ATOM     29  H   UNL     1       0.987   0.359  -3.449  0.00  0.00    +0.000 HD
ATOM     30  H   UNL     1       1.117   0.568  -1.782  0.00  0.00    +0.000 HD
ENDBRANCH  26  27
ENDBRANCH  24  26
ENDBRANCH  23  24
ENDBRANCH  22  23
ENDBRANCH  21  22
ENDBRANCH  19  21
ENDBRANCH   1  19
TORSDOF 9
ENDMDL
MODEL      197
REMARK  Name = ZINC19537964
REMARK  9 active torsions:
REMARK  status: ('A' for Active; 'I' for Inactive)
REMARK    1  A    between atoms: C_1  and  C_2
REMARK    2  A    between atoms: C_2  and  N_3
REMARK    3  A    between atoms: N_3  and  C_4
REMARK    4  A    between atoms: N_3  and  C_10
REMARK    5  A    between atoms: C_4  and  C_5
REMARK    6  A    between atoms: C_10  and  C_11
REMARK    7  A    between atoms: N_13  and  C_14
REMARK    8  A    between atoms: C_16  and  C_23
REMARK    9  A    between atoms: C_18  and  C_20
REMARK                            x       y       z     vdW  Elec       q    Type
REMARK                         _______ _______ _______ _____ _____    ______ ____
ROOT
ATOM      1  C   UNL     1      -0.205  -2.927  -3.133  0.00  0.00    +0.000 A 
ATOM      2  C   UNL     1      -0.575  -3.509  -1.929  0.00  0.00    +0.000 A 
ATOM      3  C   UNL     1      -0.935  -4.857  -1.885  0.00  0.00    +0.000 A 
ATOM      4  C   UNL     1      -0.912  -5.621  -3.050  0.00  0.00    +0.000 A 
ATOM      5  C   UNL     1      -0.535  -5.035  -4.256  0.00  0.00    +0.000 A 
ATOM      6  C   UNL     1      -0.181  -3.685  -4.295  0.00  0.00    +0.000 A 
ENDROOT
BRANCH   3   7
ATOM      7  C   UNL     1      -1.335  -5.474  -0.602  0.00  0.00    +0.000 C 
ATOM      8  O   UNL     1      -1.354  -4.807   0.414  0.00  0.00    +0.000 OA
ATOM      9  N   UNL     1      -1.677  -6.777  -0.559  0.00  0.00    +0.000 N 
ATOM     10  H   UNL     1      -1.661  -7.343  -1.420  0.00  0.00    +0.000 HD
ATOM     11  H   UNL     1      -1.956  -7.207   0.334  0.00  0.00    +0.000 HD
ENDBRANCH   3   7
BRANCH   5  12
ATOM     12  C   UNL     1      -0.510  -5.842  -5.495  0.00  0.00    +0.000 C 
ATOM     13  O   UNL     1      -0.181  -5.330  -6.548  0.00  0.00    +0.000 OA
ATOM     14  N   UNL     1      -0.852  -7.145  -5.457  0.00  0.00    +0.000 N 
ATOM     15  H   UNL     1      -1.131  -7.579  -4.566  0.00  0.00    +0.000 HD
ATOM     16  H   UNL     1      -0.835  -7.707  -6.320  0.00  0.00    +0.000 HD
ENDBRANCH   5  12
BRANCH   1  19
ATOM     17  C   UNL     1      -0.492  -0.684  -2.393  0.00  0.00    +0.000 C 
ATOM     18  O   UNL     1      -1.317  -1.067  -1.590  0.00  0.00    +0.000 OA
ATOM     19  N   UNL     1       0.150  -1.574  -3.175  0.00  0.00    +0.000 N 
ATOM     20  H   UNL     1       0.902  -1.258  -3.804  0.00  0.00    +0.000 HD
BRANCH  17  21
ATOM     21  C   UNL     1      -0.185   0.786  -2.514  0.00  0.00    +0.000 C 
BRANCH  21  22
ATOM     22  N   UNL     1      -1.010   1.539  -1.561  0.00  0.00    +0.000 NA
BRANCH  22  24
ATOM     23  C   UNL     1      -1.789   1.598   0.760  0.00  0.00    +0.000 C 
ATOM     24  C   UNL     1      -0.640   1.218  -0.176  0.00  0.00    +0.000 C 
ENDBRANCH  22  24
BRANCH  22  25
ATOM     25  C   UNL     1      -0.916   2.984  -1.809  0.00  0.00    +0.000 C 
BRANCH  25  26
ATOM     26  C   UNL     1      -1.654   3.324  -3.079  0.00  0.00    +0.000 A 
ATOM     27  C   UNL     1      -2.974   3.574  -3.257  0.00  0.00    +0.000 A 
ATOM     28  C   UNL     1      -3.434   3.872  -4.526  0.00  0.00    +0.000 A 
ATOM     29  C   UNL     1      -2.553   3.895  -5.556  0.00  0.00    +0.000 A 
ATOM     30  S   UNL     1      -1.018   3.495  -4.738  0.00  0.00    +0.000 S 
ENDBRANCH  25  26
ENDBRANCH  22  25
ENDBRANCH  21  22
ENDBRANCH  17  21
ENDBRANCH   1  19
TORSDOF 8
ENDMDL
MODEL      198
REMARK  Name = ZINC20744634
REMARK  10 active torsions:
REMARK  status: ('A' for Active; 'I' for Inactive)
REMARK    1  A    between atoms: C_1  and  N_2
REMARK    2  A    between atoms: C_7  and  N_21
REMARK    3  A    between atoms: N_11  and  C_12
REMARK    4  A    between atoms: C_12  and  C_13
REMARK    5  A    between atoms: C_16  and  O_19
REMARK    6  A    between atoms: O_19  and  C_20
REMARK    7  A    between atoms: N_21  and  C_22
REMARK    8  A    between atoms: C_22  and  C_23
REMARK    9  A    between atoms: C_23  and  C_24
REMARK   10  A    between atoms: C_24  and  O_25
REMARK                            x       y       z     vdW  Elec       q    Type
REMARK                         _______ _______ _______ _____ _____    ______ ____
ROOT
ATOM      1  C   UNL     1      -1.832   3.151   0.044  0.00  0.00    +0.000 C 
ATOM      2  N   UNL     1      -1.329   1.775   0.030  0.00  0.00    +0.000 N 
ATOM      3  C   UNL     1      -0.017   1.404   0.010  0.00  0.00    +0.000 A 
ATOM      4  C   UNL     1       0.002  -0.004   0.002  0.00  0.00    +0.000 A 
ATOM      5  C   UNL     1      -1.342  -0.436   0.013  0.00  0.00    +0.000 A 
ATOM      6  N   UNL     1      -2.113   0.614   0.025  0.00  0.00    +0.000 NA
ATOM      7  C   UNL     1       1.250  -0.657  -0.013  0.00  0.00    +0.000 A 
ATOM      8  N   UNL     1       2.352   0.083  -0.019  0.00  0.00    +0.000 NA
ATOM      9  C   UNL     1       2.289   1.409  -0.011  0.00  0.00    +0.000 A 
ATOM     10  N   UNL     1       1.140   2.064   0.002  0.00  0.00    +0.000 NA
ATOM     11  N   UNL     1       3.468   2.133  -0.019  0.00  0.00    +0.000 N 
ATOM     12  H   UNL     1       3.440   3.163  -0.013  0.00  0.00    +0.000 HD
ENDROOT
BRANCH   7  13
ATOM     13  N   UNL     1       1.326  -2.036  -0.021  0.00  0.00    +0.000 N 
ATOM     14  H   UNL     1       0.463  -2.599  -0.015  0.00  0.00    +0.000 HD
BRANCH  13  15
ATOM     15  C   UNL     1       2.633  -2.698  -0.036  0.00  0.00    +0.000 C 
BRANCH  15  16
ATOM     16  C   UNL     1       2.436  -4.215  -0.042  0.00  0.00    +0.000 C 
BRANCH  16  17
ATOM     17  C   UNL     1       3.800  -4.907  -0.058  0.00  0.00    +0.000 C 
BRANCH  17  18
ATOM     18  O   UNL     1       3.617  -6.324  -0.064  0.00  0.00    +0.000 OA
ATOM     19  H   UNL     1       3.104  -6.588  -0.869  0.00  0.00    +0.000 HD
ENDBRANCH  17  18
ENDBRANCH  16  17
ENDBRANCH  15  16
ENDBRANCH  13  15
ENDBRANCH   7  13
BRANCH  11  20
ATOM     20  C   UNL     1       4.756   1.435  -0.035  0.00  0.00    +0.000 C 
BRANCH  20  21
ATOM     21  C   UNL     1       5.875   2.445  -0.040  0.00  0.00    +0.000 A 
ATOM     22  C   UNL     1       6.379   2.909  -1.241  0.00  0.00    +0.000 A 
ATOM     23  C   UNL     1       7.401   3.839  -1.248  0.00  0.00    +0.000 A 
ATOM     24  C   UNL     1       7.928   4.298  -0.050  0.00  0.00    +0.000 A 
ATOM     25  C   UNL     1       7.424   3.826   1.153  0.00  0.00    +0.000 A 
ATOM     26  C   UNL     1       6.399   2.901   1.155  0.00  0.00    +0.000 A 
BRANCH  24  27
ATOM     27  O   UNL     1       8.937   5.209  -0.055  0.00  0.00    +0.000 OA
ATOM     28  C   UNL     1       9.406   5.650  -1.330  0.00  0.00    +0.000 C 
ENDBRANCH  24  27
ENDBRANCH  20  21
ENDBRANCH  11  20
TORSDOF 8
ENDMDL
MODEL      199
REMARK  Name = ZINC29494358
REMARK  11 active torsions:
REMARK  status: ('A' for Active; 'I' for Inactive)
REMARK    1  A    between atoms: C_1  and  C_2
REMARK    2  A    between atoms: C_2  and  C_3
REMARK    3  A    between atoms: C_3  and  N_4
REMARK    4  A    between atoms: C_5  and  S_7
REMARK    5  A    between atoms: S_7  and  C_8
REMARK    6  A    between atoms: C_8  and  C_9
REMARK    7  A    between atoms: N_11  and  C_12
REMARK    8  A    between atoms: N_11  and  C_16
REMARK    9  A    between atoms: C_12  and  C_13
REMARK   10  A    between atoms: C_13  and  C_14
REMARK   11  A    between atoms: C_13  and  C_15
REMARK                            x       y       z     vdW  Elec       q    Type
REMARK                         _______ _______ _______ _____ _____    ______ ____
ROOT
ATOM      1  C   UNL     1      -3.205   4.205   2.613  0.00  0.00    +0.000 C 
ATOM      2  O   UNL     1      -2.340   4.861   2.072  0.00  0.00    +0.000 OA
ATOM      3  N   UNL     1      -3.301   2.883   2.369  0.00  0.00    +0.000 N 
ENDROOT
BRANCH   3   4
ATOM      4  C   UNL     1      -2.360   2.238   1.449  0.00  0.00    +0.000 C 
ATOM      5  C   UNL     1      -0.920   2.522   1.912  0.00  0.00    +0.000 C 
ATOM      6  C   UNL     1       0.046   2.105   0.766  0.00  0.00    +0.000 C 
ATOM      7  S   UNL     1      -0.886   2.716  -0.701  0.00  0.00    +0.000 S 
ATOM      8  O   UNL     1      -0.453   4.035  -1.007  0.00  0.00    +0.000 OA
ATOM      9  O   UNL     1      -0.860   1.719  -1.714  0.00  0.00    +0.000 OA
ATOM     10  C   UNL     1      -2.575   2.793   0.021  0.00  0.00    +0.000 C 
ENDBRANCH   3   4
BRANCH   3  11
ATOM     11  C   UNL     1      -4.346   2.091   3.022  0.00  0.00    +0.000 C 
BRANCH  11  12
ATOM     12  C   UNL     1      -3.870   1.667   4.413  0.00  0.00    +0.000 C 
ATOM     13  C   UNL     1      -5.020   0.991   5.162  0.00  0.00    +0.000 C 
ATOM     14  C   UNL     1      -2.704   0.686   4.276  0.00  0.00    +0.000 C 
ENDBRANCH  11  12
ENDBRANCH   3  11
BRANCH   1  15
ATOM     15  C   UNL     1      -4.172   4.869   3.559  0.00  0.00    +0.000 C 
BRANCH  15  16
ATOM     16  S   UNL     1      -3.786   6.633   3.677  0.00  0.00    +0.000 S 
BRANCH  16  18
ATOM     17  N   UNL     1      -5.881   6.272   5.286  0.00  0.00    +0.000 N 
ATOM     18  C   UNL     1      -5.034   7.144   4.812  0.00  0.00    +0.000 C 
ATOM     19  N   UNL     1      -5.114   8.461   5.199  0.00  0.00    +0.000 N 
ATOM     20  H   UNL     1      -5.761   5.271   5.077  0.00  0.00    +0.000 HD
ATOM     21  H   UNL     1      -5.843   8.760   5.862  0.00  0.00    +0.000 HD
ATOM     22  H   UNL     1      -4.445   9.150   4.825  0.00  0.00    +0.000 HD
BRANCH  17  23
ATOM     23  C   UNL     1      -7.003   6.718   6.116  0.00  0.00    +0.000 C 
BRANCH  23  25
ATOM     24  C   UNL     1      -9.492   6.836   6.287  0.00  0.00    +0.000 C 
ATOM     25  C   UNL     1      -8.321   6.371   5.420  0.00  0.00    +0.000 C 
ENDBRANCH  23  25
ENDBRANCH  17  23
ENDBRANCH  16  18
ENDBRANCH  15  16
ENDBRANCH   1  15
TORSDOF 8
ENDMDL
MODEL      200
REMARK  Name = ZINC04408477
REMARK  9 active torsions:
REMARK  status: ('A' for Active; 'I' for Inactive)
REMARK    1  A    between atoms: C_1  and  O_2
REMARK    2  A    between atoms: O_2  and  C_3
REMARK    3  A    between atoms: C_5  and  C_17
REMARK    4  A    between atoms: C_8  and  O_9
REMARK    5  A    between atoms: O_9  and  C_10
REMARK    6  A    between atoms: C_10  and  C_11
REMARK    7  A    between atoms: C_17  and  C_18
REMARK    8  A    between atoms: C_17  and  N_22
REMARK    9  A    between atoms: C_18  and  C_19
REMARK                            x       y       z     vdW  Elec       q    Type
REMARK                         _______ _______ _______ _____ _____    ______ ____
ROOT
ATOM      1  C   UNL     1      -3.865  -4.256  -1.450  0.00  0.00    +0.000 A 
ATOM      2  C   UNL     1      -2.681  -3.545  -1.343  0.00  0.00    +0.000 A 
ATOM      3  C   UNL     1      -2.283  -3.045  -0.116  0.00  0.00    +0.000 A 
ATOM      4  C   UNL     1      -3.070  -3.245   1.003  0.00  0.00    +0.000 A 
ATOM      5  C   UNL     1      -4.255  -3.949   0.902  0.00  0.00    +0.000 A 
ATOM      6  C   UNL     1      -4.657  -4.457  -0.323  0.00  0.00    +0.000 A 
ENDROOT
BRANCH   1   8
ATOM      7  C   UNL     1      -3.392  -4.508  -3.767  0.00  0.00    +0.000 C 
ATOM      8  O   UNL     1      -4.255  -4.753  -2.654  0.00  0.00    +0.000 OA
ENDBRANCH   1   8
BRANCH   6   9
ATOM      9  O   UNL     1      -5.823  -5.150  -0.424  0.00  0.00    +0.000 OA
BRANCH   9  10
ATOM     10  C   UNL     1      -6.584  -5.317   0.773  0.00  0.00    +0.000 C 
BRANCH  10  11
ATOM     11  C   UNL     1      -7.833  -6.103   0.469  0.00  0.00    +0.000 A 
ATOM     12  C   UNL     1      -8.040  -7.444   0.489  0.00  0.00    +0.000 A 
ATOM     13  N   UNL     1      -9.238  -7.898   0.184  0.00  0.00    +0.000 NA
ATOM     14  C   UNL     1     -10.215  -7.084  -0.145  0.00  0.00    +0.000 A 
ATOM     15  S   UNL     1      -9.451  -5.529  -0.027  0.00  0.00    +0.000 S 
ATOM     16 CL   UNL     1     -11.851  -7.465  -0.585  0.00  0.00    +0.000 Cl
ENDBRANCH  10  11
ENDBRANCH   9  10
ENDBRANCH   6   9
BRANCH   3  17
ATOM     17  C   UNL     1      -0.993  -2.276  -0.001  0.00  0.00    +0.000 C 
BRANCH  17  18
ATOM     18  N   UNL     1      -0.308  -2.673   1.242  0.00  0.00    +0.000 N 
ATOM     19  H   UNL     1      -0.104  -3.682   1.220  0.00  0.00    +0.000 HD
ATOM     20  H   UNL     1      -0.907  -2.460   2.053  0.00  0.00    +0.000 HD
ATOM     21  H   UNL     1       0.575  -2.149   1.327  0.00  0.00    +0.000 HD
ENDBRANCH  17  18
BRANCH  17  22
ATOM     22  C   UNL     1      -1.293  -0.775   0.010  0.00  0.00    +0.000 C 
BRANCH  22  23
ATOM     23  C   UNL     1       0.002  -0.004   0.002  0.00  0.00    +0.000 C 
ATOM     24  O   UNL     1       1.056  -0.594  -0.011  0.00  0.00    +0.000 OA
ATOM     25  O   UNL     1      -0.016   1.338   0.009  0.00  0.00    +0.000 OA
ENDBRANCH  22  23
ENDBRANCH  17  22
ENDBRANCH   3  17
TORSDOF 8
ENDMDL
MODEL      201
REMARK  Name = ZINC29829504
REMARK  7 active torsions:
REMARK  status: ('A' for Active; 'I' for Inactive)
REMARK    1  A    between atoms: C_3  and  C_14
REMARK    2  A    between atoms: C_6  and  C_7
REMARK    3  A    between atoms: C_7  and  S_8
REMARK    4  A    between atoms: S_8  and  C_9
REMARK    5  A    between atoms: N_16  and  C_17
REMARK    6  A    between atoms: C_17  and  C_18
REMARK    7  A    between atoms: C_18  and  N_19
REMARK                            x       y       z     vdW  Elec       q    Type
REMARK                         _______ _______ _______ _____ _____    ______ ____
ROOT
ATOM      1  C   UNL     1       1.172   3.565   0.009  0.00  0.00    +0.000 C 
ATOM      2  O   UNL     1       0.114   4.164   0.022  0.00  0.00    +0.000 OA
ATOM      3  N   UNL     1       2.333   4.249   0.002  0.00  0.00    +0.000 N 
ATOM      4  H   UNL     1       3.229   3.741  -0.009  0.00  0.00    +0.000 HD
ENDROOT
BRANCH   1   7
ATOM      5  C   UNL     1       0.002  -0.004   0.002  0.00  0.00    +0.000 A 
ATOM      6  C   UNL     1      -0.017   1.375   0.010  0.00  0.00    +0.000 A 
ATOM      7  C   UNL     1       1.184   2.087   0.002  0.00  0.00    +0.000 A 
ATOM      8  C   UNL     1       2.397   1.396  -0.013  0.00  0.00    +0.000 A 
ATOM      9  C   UNL     1       2.402   0.016  -0.021  0.00  0.00    +0.000 A 
ATOM     10  C   UNL     1       1.208  -0.682  -0.013  0.00  0.00    +0.000 A 
BRANCH  10  11
ATOM     11  C   UNL     1       1.221  -2.189  -0.021  0.00  0.00    +0.000 C 
BRANCH  11  12
ATOM     12  S   UNL     1       1.209  -2.784  -1.730  0.00  0.00    +0.000 S 
BRANCH  12  13
ATOM     13  C   UNL     1       1.227  -4.524  -1.449  0.00  0.00    +0.000 A 
ATOM     14  N   UNL     1       1.220  -5.483  -2.400  0.00  0.00    +0.000 NA
ATOM     15  N   UNL     1       1.233  -6.712  -1.720  0.00  0.00    +0.000 NA
ATOM     16  C   UNL     1       1.253  -6.442  -0.443  0.00  0.00    +0.000 A 
ATOM     17  N   UNL     1       1.249  -5.119  -0.276  0.00  0.00    +0.000 NA
ENDBRANCH  12  13
ENDBRANCH  11  12
ENDBRANCH  10  11
ENDBRANCH   1   7
BRANCH   3  18
ATOM     18  C   UNL     1       2.321   5.714   0.010  0.00  0.00    +0.000 C 
BRANCH  18  19
ATOM     19  C   UNL     1       3.759   6.236  -0.001  0.00  0.00    +0.000 C 
BRANCH  19  20
ATOM     20  N   UNL     1       3.746   7.701   0.006  0.00  0.00    +0.000 N 
ATOM     21  C   UNL     1       4.944   8.406  -0.001  0.00  0.00    +0.000 A 
ATOM     22  C   UNL     1       6.158   7.722  -0.016  0.00  0.00    +0.000 A 
ATOM     23  N   UNL     1       7.292   8.395  -0.024  0.00  0.00    +0.000 NA
ATOM     24  C   UNL     1       7.278   9.718  -0.018  0.00  0.00    +0.000 A 
ATOM     25  C   UNL     1       6.077  10.400  -0.003  0.00  0.00    +0.000 A 
ATOM     26  N   UNL     1       4.935   9.733  -0.000  0.00  0.00    +0.000 NA
ATOM     27  H   UNL     1       2.850   8.208   0.017  0.00  0.00    +0.000 HD
ENDBRANCH  19  20
ENDBRANCH  18  19
ENDBRANCH   3  18
TORSDOF 7
ENDMDL
MODEL      202
REMARK  Name = ZINC30598708
REMARK  8 active torsions:
REMARK  status: ('A' for Active; 'I' for Inactive)
REMARK    1  A    between atoms: N_10  and  C_11
REMARK    2  A    between atoms: C_11  and  C_12
REMARK    3  A    between atoms: N_14  and  N_15
REMARK    4  A    between atoms: C_16  and  C_18
REMARK    5  A    between atoms: C_18  and  C_19
REMARK    6  A    between atoms: C_19  and  S_20
REMARK    7  A    between atoms: S_20  and  C_21
REMARK    8  A    between atoms: C_21  and  C_22
REMARK                            x       y       z     vdW  Elec       q    Type
REMARK                         _______ _______ _______ _____ _____    ______ ____
ROOT
ATOM      1  C   UNL     1       2.231  -0.977  -2.932  0.00  0.00    +0.000 C 
ATOM      2  O   UNL     1       1.186  -0.366  -3.007  0.00  0.00    +0.000 OA
ATOM      3  N   UNL     1       2.646  -1.732  -3.969  0.00  0.00    +0.000 N 
ATOM      4  H   UNL     1       3.533  -2.250  -3.906  0.00  0.00    +0.000 HD
ENDROOT
BRANCH   3   5
ATOM      5  N   UNL     1       1.869  -1.810  -5.133  0.00  0.00    +0.000 N 
ATOM      6  C   UNL     1       2.284  -2.565  -6.170  0.00  0.00    +0.000 C 
ATOM      7  O   UNL     1       3.329  -3.176  -6.096  0.00  0.00    +0.000 OA
ATOM      8  H   UNL     1       0.982  -1.292  -5.196  0.00  0.00    +0.000 HD
BRANCH   6   9
ATOM      9  C   UNL     1       1.449  -2.650  -7.421  0.00  0.00    +0.000 C 
BRANCH   9  10
ATOM     10  C   UNL     1       2.140  -3.564  -8.435  0.00  0.00    +0.000 C 
BRANCH  10  11
ATOM     11  S   UNL     1       1.135  -3.666  -9.941  0.00  0.00    +0.000 S 
BRANCH  11  12
ATOM     12  C   UNL     1       2.080  -4.772 -11.025  0.00  0.00    +0.000 C 
BRANCH  12  13
ATOM     13  C   UNL     1       1.345  -4.945 -12.330  0.00  0.00    +0.000 C 
ATOM     14  O   UNL     1       0.289  -4.378 -12.511  0.00  0.00    +0.000 OA
ATOM     15  N   UNL     1       1.863  -5.729 -13.296  0.00  0.00    +0.000 N 
ATOM     16  H   UNL     1       2.761  -6.210 -13.142  0.00  0.00    +0.000 HD
ATOM     17  H   UNL     1       1.361  -5.847 -14.188  0.00  0.00    +0.000 HD
ENDBRANCH  12  13
ENDBRANCH  11  12
ENDBRANCH  10  11
ENDBRANCH   9  10
ENDBRANCH   6   9
ENDBRANCH   3   5
BRANCH   1  18
ATOM     18  C   UNL     1       3.066  -0.892  -1.681  0.00  0.00    +0.000 C 
BRANCH  18  28
ATOM     19  C   UNL     1      -1.264  -1.217   0.508  0.00  0.00    +0.000 A 
ATOM     20  C   UNL     1      -0.245  -2.118   0.257  0.00  0.00    +0.000 A 
ATOM     21  C   UNL     1       0.985  -1.664  -0.169  0.00  0.00    +0.000 A 
ATOM     22  C   UNL     1       1.210  -0.298  -0.349  0.00  0.00    +0.000 A 
ATOM     23  C   UNL     1       0.186   0.598  -0.102  0.00  0.00    +0.000 A 
ATOM     24  C   UNL     1      -1.048   0.134   0.328  0.00  0.00    +0.000 A 
ATOM     25  C   UNL     1       0.362   2.084  -0.287  0.00  0.00    +0.000 C 
ATOM     26  C   UNL     1       1.853   2.419  -0.377  0.00  0.00    +0.000 C 
ATOM     27  C   UNL     1       2.499   1.436  -1.361  0.00  0.00    +0.000 C 
ATOM     28  N   UNL     1       2.480   0.098  -0.767  0.00  0.00    +0.000 N 
ENDBRANCH  18  28
ENDBRANCH   1  18
TORSDOF 8
ENDMDL
MODEL      203
REMARK  Name = ZINC04771070
REMARK  9 active torsions:
REMARK  status: ('A' for Active; 'I' for Inactive)
REMARK    1  A    between atoms: C_1  and  C_2
REMARK    2  A    between atoms: C_2  and  O_3
REMARK    3  A    between atoms: O_3  and  C_4
REMARK    4  A    between atoms: C_6  and  C_14
REMARK    5  A    between atoms: C_9  and  O_10
REMARK    6  A    between atoms: O_10  and  C_11
REMARK    7  A    between atoms: C_11  and  C_12
REMARK    8  A    between atoms: C_14  and  N_15
REMARK    9  A    between atoms: N_15  and  N_16
REMARK                            x       y       z     vdW  Elec       q    Type
REMARK                         _______ _______ _______ _____ _____    ______ ____
ROOT
ATOM      1  C   UNL     1       0.807   1.987   2.993  0.00  0.00    +0.000 A 
ATOM      2  C   UNL     1       1.347   1.611   4.212  0.00  0.00    +0.000 A 
ATOM      3  C   UNL     1       0.938   0.438   4.818  0.00  0.00    +0.000 A 
ATOM      4  C   UNL     1      -0.011  -0.363   4.210  0.00  0.00    +0.000 A 
ATOM      5  C   UNL     1      -0.559   0.009   2.996  0.00  0.00    +0.000 A 
ATOM      6  C   UNL     1      -0.148   1.182   2.381  0.00  0.00    +0.000 A 
ATOM      7 BR   UNL     1      -1.863  -1.084   2.172  0.00  0.00    +0.000 Br
ENDROOT
BRANCH   6   8
ATOM      8  O   UNL     1      -0.682   1.547   1.184  0.00  0.00    +0.000 OA
BRANCH   8   9
ATOM      9  C   UNL     1      -0.013   1.086   0.008  0.00  0.00    +0.000 C 
ATOM     10  C   UNL     1      -0.753   1.593  -1.232  0.00  0.00    +0.000 C 
ENDBRANCH   8   9
ENDBRANCH   6   8
BRANCH   1  11
ATOM     11  O   UNL     1       1.209   3.141   2.396  0.00  0.00    +0.000 OA
BRANCH  11  13
ATOM     12  C   UNL     1       2.516   5.169   2.264  0.00  0.00    +0.000 C 
ATOM     13  C   UNL     1       2.192   3.918   3.083  0.00  0.00    +0.000 C 
ENDBRANCH  11  13
ENDBRANCH   1  11
BRANCH   3  14
ATOM     14  C   UNL     1       1.527   0.031   6.144  0.00  0.00    +0.000 C 
BRANCH  14  15
ATOM     15  N   UNL     1       0.714   0.589   7.233  0.00  0.00    +0.000 N 
ATOM     16  H   UNL     1      -0.127   1.167   7.096  0.00  0.00    +0.000 HD
BRANCH  15  17
ATOM     17  N   UNL     1       1.222   0.238   8.452  0.00  0.00    +0.000 N 
ATOM     18  C   UNL     1       0.737   0.570   9.670  0.00  0.00    +0.000 A 
ATOM     19  N   UNL     1       1.530   0.024  10.565  0.00  0.00    +0.000 NA
ATOM     20  N   UNL     1       2.476  -0.627   9.990  0.00  0.00    +0.000 NA
ATOM     21  N   UNL     1       2.357  -0.551   8.709  0.00  0.00    +0.000 NA
ATOM     22  N   UNL     1      -0.384   1.341   9.927  0.00  0.00    +0.000 N 
ATOM     23  H   UNL     1      -0.883   1.686   9.095  0.00  0.00    +0.000 HD
ATOM     24  H   UNL     1      -0.709   1.564  10.878  0.00  0.00    +0.000 HD
ENDBRANCH  15  17
ENDBRANCH  14  15
ENDBRANCH   3  14
TORSDOF 7
ENDMDL
MODEL      204
REMARK  Name = ZINC02300925
REMARK  11 active torsions:
REMARK  status: ('A' for Active; 'I' for Inactive)
REMARK    1  A    between atoms: C_1  and  C_2
REMARK    2  A    between atoms: C_2  and  O_3
REMARK    3  A    between atoms: O_3  and  C_4
REMARK    4  A    between atoms: C_6  and  C_11
REMARK    5  A    between atoms: C_9  and  O_10
REMARK    6  A    between atoms: C_12  and  C_19
REMARK    7  A    between atoms: C_19  and  O_21
REMARK    8  A    between atoms: O_21  and  C_22
REMARK    9  A    between atoms: C_22  and  C_23
REMARK   10  A    between atoms: C_23  and  O_24
REMARK   11  A    between atoms: O_24  and  C_25
REMARK                            x       y       z     vdW  Elec       q    Type
REMARK                         _______ _______ _______ _____ _____    ______ ____
ROOT
ATOM      1  C   UNL     1       1.261   1.687  -0.001  0.00  0.00    +0.000 C 
ATOM      2  C   UNL     1       1.102   3.013   0.755  0.00  0.00    +0.000 C 
ATOM      3  C   UNL     1      -0.134   3.703   0.213  0.00  0.00    +0.000 C 
ATOM      4  C   UNL     1      -0.113   4.973  -0.142  0.00  0.00    +0.000 C 
ATOM      5  N   UNL     1      -1.299   2.934   0.106  0.00  0.00    +0.000 N 
ATOM      6  C   UNL     1      -1.194   1.595   0.017  0.00  0.00    +0.000 C 
ATOM      7  O   UNL     1      -2.211   0.931  -0.054  0.00  0.00    +0.000 OA
ATOM      8  N   UNL     1      -0.011   0.966   0.007  0.00  0.00    +0.000 N 
ATOM      9  H   UNL     1      -2.224   3.387   0.095  0.00  0.00    +0.000 HD
ATOM     10  H   UNL     1       0.003  -0.064   0.006  0.00  0.00    +0.000 HD
ENDROOT
BRANCH   1  13
ATOM     11  C   UNL     1       3.376   2.101  -3.104  0.00  0.00    +0.000 A 
ATOM     12  C   UNL     1       2.998   1.849  -1.795  0.00  0.00    +0.000 A 
ATOM     13  C   UNL     1       1.671   1.966  -1.424  0.00  0.00    +0.000 A 
ATOM     14  C   UNL     1       0.721   2.343  -2.354  0.00  0.00    +0.000 A 
ATOM     15  C   UNL     1       1.092   2.600  -3.661  0.00  0.00    +0.000 A 
ATOM     16  C   UNL     1       2.419   2.480  -4.041  0.00  0.00    +0.000 A 
BRANCH  16  17
ATOM     17  O   UNL     1       2.786   2.733  -5.325  0.00  0.00    +0.000 OA
ATOM     18  H   UNL     1       3.237   1.906  -5.628  0.00  0.00    +0.000 HD
ENDBRANCH  16  17
BRANCH  11  19
ATOM     19  O   UNL     1       4.679   1.982  -3.472  0.00  0.00    +0.000 OA
BRANCH  19  21
ATOM     20  C   UNL     1       7.013   1.508  -3.055  0.00  0.00    +0.000 C 
ATOM     21  C   UNL     1       5.606   1.588  -2.458  0.00  0.00    +0.000 C 
ENDBRANCH  19  21
ENDBRANCH  11  19
ENDBRANCH   1  13
BRANCH   2  22
ATOM     22  C   UNL     1       0.934   2.744   2.228  0.00  0.00    +0.000 C 
ATOM     23  O   UNL     1       0.939   1.609   2.640  0.00  0.00    +0.000 OA
BRANCH  22  24
ATOM     24  O   UNL     1       0.777   3.768   3.083  0.00  0.00    +0.000 OA
BRANCH  24  25
ATOM     25  C   UNL     1       0.621   3.435   4.487  0.00  0.00    +0.000 C 
BRANCH  25  26
ATOM     26  C   UNL     1       0.457   4.720   5.301  0.00  0.00    +0.000 C 
BRANCH  26  27
ATOM     27  O   UNL     1      -0.761   5.368   4.928  0.00  0.00    +0.000 OA
ATOM     28  C   UNL     1      -1.012   6.586   5.633  0.00  0.00    +0.000 C 
ENDBRANCH  26  27
ENDBRANCH  25  26
ENDBRANCH  24  25
ENDBRANCH  22  24
ENDBRANCH   2  22
TORSDOF 9
ENDMDL
MODEL      205
REMARK  Name = ZINC25051447
REMARK  12 active torsions:
REMARK  status: ('A' for Active; 'I' for Inactive)
REMARK    1  A    between atoms: C_1  and  C_2
REMARK    2  A    between atoms: C_2  and  N_25
REMARK    3  A    between atoms: C_3  and  C_4
REMARK    4  A    between atoms: C_3  and  C_6
REMARK    5  A    between atoms: C_6  and  C_8
REMARK    6  A    between atoms: C_8  and  S_9
REMARK    7  A    between atoms: S_9  and  C_10
REMARK    8  A    between atoms: C_13  and  C_19
REMARK    9  A    between atoms: N_14  and  C_15
REMARK   10  A    between atoms: C_15  and  C_16
REMARK   11  A    between atoms: C_16  and  O_17
REMARK   12  A    between atoms: O_17  and  C_18
REMARK                            x       y       z     vdW  Elec       q    Type
REMARK                         _______ _______ _______ _____ _____    ______ ____
ROOT
ATOM      1  C   UNL     1      -0.962   2.927   2.043  0.00  0.00    +0.000 A 
ATOM      2  N   UNL     1      -1.720   3.052   3.110  0.00  0.00    +0.000 NA
ATOM      3  N   UNL     1      -2.596   2.113   3.140  0.00  0.00    +0.000 NA
ATOM      4  C   UNL     1      -2.456   1.334   2.094  0.00  0.00    +0.000 A 
ATOM      5  N   UNL     1      -1.407   1.833   1.357  0.00  0.00    +0.000 N 
ENDROOT
BRANCH   4   6
ATOM      6  C   UNL     1      -3.271   0.144   1.768  0.00  0.00    +0.000 A 
ATOM      7  C   UNL     1      -3.298  -0.351   0.464  0.00  0.00    +0.000 A 
ATOM      8  C   UNL     1      -4.056  -1.465   0.168  0.00  0.00    +0.000 A 
ATOM      9  C   UNL     1      -4.798  -2.084   1.158  0.00  0.00    +0.000 A 
ATOM     10  C   UNL     1      -4.779  -1.595   2.452  0.00  0.00    +0.000 A 
ATOM     11  C   UNL     1      -4.021  -0.485   2.763  0.00  0.00    +0.000 A 
ENDBRANCH   4   6
BRANCH   5  12
ATOM     12  C   UNL     1      -0.874   1.299   0.101  0.00  0.00    +0.000 C 
BRANCH  12  13
ATOM     13  C   UNL     1      -1.538   2.013  -1.079  0.00  0.00    +0.000 C 
BRANCH  13  14
ATOM     14  O   UNL     1      -1.018   1.492  -2.304  0.00  0.00    +0.000 OA
ATOM     15  C   UNL     1      -1.575   2.094  -3.474  0.00  0.00    +0.000 C 
ENDBRANCH  13  14
ENDBRANCH  12  13
ENDBRANCH   5  12
BRANCH   1  16
ATOM     16  S   UNL     1       0.377   3.976   1.583  0.00  0.00    +0.000 S 
BRANCH  16  17
ATOM     17  C   UNL     1       0.340   5.154   2.956  0.00  0.00    +0.000 C 
BRANCH  17  18
ATOM     18  C   UNL     1       1.431   6.177   2.771  0.00  0.00    +0.000 C 
ATOM     19  O   UNL     1       2.162   6.115   1.804  0.00  0.00    +0.000 OA
BRANCH  18  22
ATOM     20  C   UNL     1       3.743   7.831   2.583  0.00  0.00    +0.000 C 
ATOM     21  C   UNL     1       2.679   8.073   3.622  0.00  0.00    +0.000 C 
ATOM     22  C   UNL     1       1.603   7.209   3.724  0.00  0.00    +0.000 C 
BRANCH  21  23
ATOM     23  N   UNL     1       2.774   9.132   4.452  0.00  0.00    +0.000 N 
ATOM     24  H   UNL     1       3.575   9.775   4.375  0.00  0.00    +0.000 HD
ATOM     25  H   UNL     1       2.046   9.298   5.161  0.00  0.00    +0.000 HD
ENDBRANCH  21  23
BRANCH  22  26
ATOM     26  C   UNL     1       0.663   7.360   4.794  0.00  0.00    +0.000 C 
ATOM     27  N   UNL     1      -0.083   7.479   5.643  0.00  0.00    +0.000 NA
ENDBRANCH  22  26
ENDBRANCH  18  22
ENDBRANCH  17  18
ENDBRANCH  16  17
ENDBRANCH   1  16
TORSDOF 10
ENDMDL
MODEL      206
REMARK  Name = ZINC06674947
REMARK  7 active torsions:
REMARK  status: ('A' for Active; 'I' for Inactive)
REMARK    1  A    between atoms: C_1  and  O_2
REMARK    2  A    between atoms: O_2  and  C_3
REMARK    3  A    between atoms: C_8  and  N_9
REMARK    4  A    between atoms: C_10  and  C_12
REMARK    5  A    between atoms: C_12  and  C_13
REMARK    6  A    between atoms: N_19  and  N_20
REMARK    7  A    between atoms: N_20  and  C_21
REMARK                            x       y       z     vdW  Elec       q    Type
REMARK                         _______ _______ _______ _____ _____    ______ ____
ROOT
ATOM      1  C   UNL     1       5.054   6.989   1.133  0.00  0.00    +0.000 A 
ATOM      2  C   UNL     1       3.536   6.920   1.242  0.00  0.00    +0.000 A 
ATOM      3  O   UNL     1       2.853   7.868   1.578  0.00  0.00    +0.000 OA
ATOM      4  N   UNL     1       3.033   5.753   0.937  0.00  0.00    +0.000 NA
ATOM      5  C   UNL     1       3.752   4.704   0.575  0.00  0.00    +0.000 A 
ATOM      6  S   UNL     1       5.395   5.265   0.599  0.00  0.00    +0.000 S 
ATOM      7  N   UNL     1       3.303   3.458   0.248  0.00  0.00    +0.000 N 
ATOM      8  H   UNL     1       3.972   2.724  -0.024  0.00  0.00    +0.000 HD
ENDROOT
BRANCH   7   9
ATOM      9  N   UNL     1       1.931   3.177   0.283  0.00  0.00    +0.000 N 
ATOM     10  H   UNL     1       1.262   3.911   0.555  0.00  0.00    +0.000 HD
BRANCH   9  11
ATOM     11  C   UNL     1       1.473   1.908  -0.050  0.00  0.00    +0.000 C 
ATOM     12  C   UNL     1       2.246   0.907  -0.409  0.00  0.00    +0.000 C 
ATOM     13  C   UNL     1       1.428  -0.329  -0.702  0.00  0.00    +0.000 C 
ATOM     14  C   UNL     1       0.050  -0.051  -0.058  0.00  0.00    +0.000 C 
ATOM     15  C   UNL     1       0.020   1.494  -0.047  0.00  0.00    +0.000 C 
ENDBRANCH   9  11
ENDBRANCH   7   9
BRANCH   1  16
ATOM     16  C   UNL     1       5.493   8.000   0.071  0.00  0.00    +0.000 C 
BRANCH  16  18
ATOM     17  N   UNL     1       7.608   8.783  -0.944  0.00  0.00    +0.000 N 
ATOM     18  C   UNL     1       6.993   7.971  -0.062  0.00  0.00    +0.000 C 
ATOM     19  O   UNL     1       7.648   7.215   0.625  0.00  0.00    +0.000 OA
ATOM     20  H   UNL     1       7.049   9.375  -1.575  0.00  0.00    +0.000 HD
BRANCH  17  26
ATOM     21  C   UNL     1       9.660  10.018  -1.297  0.00  0.00    +0.000 A 
ATOM     22  C   UNL     1      11.044  10.053  -1.347  0.00  0.00    +0.000 A 
ATOM     23  C   UNL     1      11.774   8.902  -1.117  0.00  0.00    +0.000 A 
ATOM     24  C   UNL     1      11.127   7.714  -0.831  0.00  0.00    +0.000 A 
ATOM     25  C   UNL     1       9.747   7.672  -0.773  0.00  0.00    +0.000 A 
ATOM     26  C   UNL     1       9.008   8.823  -1.002  0.00  0.00    +0.000 A 
BRANCH  21  28
ATOM     27  C   UNL     1       9.677  12.337  -1.825  0.00  0.00    +0.000 C 
ATOM     28  O   UNL     1       8.941  11.149  -1.529  0.00  0.00    +0.000 OA
ENDBRANCH  21  28
ENDBRANCH  17  26
ENDBRANCH  16  18
ENDBRANCH   1  16
TORSDOF 6
ENDMDL
MODEL      207
REMARK  Name = ZINC22946820
REMARK  8 active torsions:
REMARK  status: ('A' for Active; 'I' for Inactive)
REMARK    1  A    between atoms: C_6  and  O_7
REMARK    2  A    between atoms: O_7  and  C_8
REMARK    3  A    between atoms: C_8  and  C_9
REMARK    4  A    between atoms: C_9  and  N_10
REMARK    5  A    between atoms: N_13  and  C_16
REMARK    6  A    between atoms: C_16  and  C_17
REMARK    7  A    between atoms: N_19  and  C_20
REMARK    8  A    between atoms: C_20  and  C_21
REMARK                            x       y       z     vdW  Elec       q    Type
REMARK                         _______ _______ _______ _____ _____    ______ ____
ROOT
ATOM      1  N   UNL     1       1.587   5.906   1.313  0.00  0.00    +0.000 NA
ATOM      2  C   UNL     1       0.280   5.246   1.429  0.00  0.00    +0.000 C 
ATOM      3  C   UNL     1      -0.294   5.498   2.825  0.00  0.00    +0.000 C 
ATOM      4  N   UNL     1      -0.416   6.945   3.048  0.00  0.00    +0.000 NA
ATOM      5  C   UNL     1       0.892   7.605   2.932  0.00  0.00    +0.000 C 
ATOM      6  C   UNL     1       1.465   7.353   1.535  0.00  0.00    +0.000 C 
ENDROOT
BRANCH   1   7
ATOM      7  C   UNL     1       2.206   5.624   0.010  0.00  0.00    +0.000 C 
BRANCH   7   8
ATOM      8  C   UNL     1       3.710   5.888   0.092  0.00  0.00    +0.000 C 
BRANCH   8   9
ATOM      9  O   UNL     1       4.308   4.962   1.001  0.00  0.00    +0.000 OA
BRANCH   9  15
ATOM     10  C   UNL     1       6.296   4.195   2.059  0.00  0.00    +0.000 A 
ATOM     11  C   UNL     1       7.660   4.298   2.250  0.00  0.00    +0.000 A 
ATOM     12  C   UNL     1       8.383   5.265   1.574  0.00  0.00    +0.000 A 
ATOM     13  C   UNL     1       7.741   6.131   0.707  0.00  0.00    +0.000 A 
ATOM     14  C   UNL     1       6.377   6.032   0.514  0.00  0.00    +0.000 A 
ATOM     15  C   UNL     1       5.651   5.062   1.190  0.00  0.00    +0.000 A 
ATOM     16 CL   UNL     1      10.098   5.392   1.815  0.00  0.00    +0.000 Cl
ENDBRANCH   9  15
ENDBRANCH   8   9
ENDBRANCH   7   8
ENDBRANCH   1   7
BRANCH   4  17
ATOM     17  C   UNL     1      -1.034   7.227   4.350  0.00  0.00    +0.000 C 
BRANCH  17  18
ATOM     18  C   UNL     1      -2.463   6.747   4.343  0.00  0.00    +0.000 C 
ATOM     19  O   UNL     1      -2.921   6.222   3.350  0.00  0.00    +0.000 OA
ATOM     20  N   UNL     1      -3.232   6.901   5.439  0.00  0.00    +0.000 N 
ATOM     21  H   UNL     1      -2.843   7.347   6.282  0.00  0.00    +0.000 HD
BRANCH  20  22
ATOM     22  C   UNL     1      -4.620   6.434   5.431  0.00  0.00    +0.000 C 
BRANCH  22  23
ATOM     23  C   UNL     1      -5.255   6.724   6.767  0.00  0.00    +0.000 C 
ATOM     24  O   UNL     1      -4.610   7.266   7.640  0.00  0.00    +0.000 OA
ATOM     25  N   UNL     1      -6.538   6.380   6.993  0.00  0.00    +0.000 N 
ATOM     26  H   UNL     1      -7.085   5.919   6.252  0.00  0.00    +0.000 HD
ATOM     27  H   UNL     1      -6.971   6.577   7.906  0.00  0.00    +0.000 HD
ENDBRANCH  22  23
ENDBRANCH  20  22
ENDBRANCH  17  18
ENDBRANCH   4  17
TORSDOF 8
ENDMDL
MODEL      208
REMARK  Name = ZINC16948655
REMARK  10 active torsions:
REMARK  status: ('A' for Active; 'I' for Inactive)
REMARK    1  A    between atoms: C_6  and  C_7
REMARK    2  A    between atoms: N_12  and  N_13
REMARK    3  A    between atoms: C_14  and  C_15
REMARK    4  A    between atoms: C_15  and  C_16
REMARK    5  A    between atoms: C_15  and  O_22
REMARK    6  A    between atoms: C_16  and  C_17
REMARK    7  A    between atoms: C_16  and  O_21
REMARK    8  A    between atoms: C_17  and  C_18
REMARK    9  A    between atoms: C_17  and  O_20
REMARK   10  A    between atoms: C_18  and  O_19
REMARK                            x       y       z     vdW  Elec       q    Type
REMARK                         _______ _______ _______ _____ _____    ______ ____
ROOT
ATOM      1  C   UNL     1       6.731   9.684   3.484  0.00  0.00    +0.000 A 
ATOM      2  C   UNL     1       5.636   9.872   4.279  0.00  0.00    +0.000 A 
ATOM      3  S   UNL     1       4.457   8.790   3.481  0.00  0.00    +0.000 S 
ATOM      4  C   UNL     1       5.539   8.197   2.188  0.00  0.00    +0.000 A 
ATOM      5  N   UNL     1       6.655   8.851   2.458  0.00  0.00    +0.000 NA
ATOM      6  N   UNL     1       5.276   7.295   1.169  0.00  0.00    +0.000 N 
ATOM      7  H   UNL     1       6.012   7.056   0.490  0.00  0.00    +0.000 HD
ENDROOT
BRANCH   1  13
ATOM      8  C   UNL     1       8.069  11.289   4.846  0.00  0.00    +0.000 A 
ATOM      9  C   UNL     1       9.248  11.956   5.108  0.00  0.00    +0.000 A 
ATOM     10  C   UNL     1      10.353  11.759   4.298  0.00  0.00    +0.000 A 
ATOM     11  C   UNL     1      10.282  10.890   3.223  0.00  0.00    +0.000 A 
ATOM     12  C   UNL     1       9.110  10.214   2.955  0.00  0.00    +0.000 A 
ATOM     13  C   UNL     1       7.994  10.408   3.768  0.00  0.00    +0.000 A 
ATOM     14 CL   UNL     1      11.831  12.607   4.630  0.00  0.00    +0.000 Cl
ENDBRANCH   1  13
BRANCH   6  15
ATOM     15  N   UNL     1       4.008   6.709   1.063  0.00  0.00    +0.000 NA
ATOM     16  C   UNL     1       3.764   5.876   0.122  0.00  0.00    +0.000 C 
BRANCH  16  17
ATOM     17  C   UNL     1       2.400   5.245   0.008  0.00  0.00    +0.000 C 
BRANCH  17  18
ATOM     18  O   UNL     1       1.561   5.733   1.056  0.00  0.00    +0.000 OA
ATOM     19  H   UNL     1       1.476   6.717   0.982  0.00  0.00    +0.000 HD
ENDBRANCH  17  18
BRANCH  17  20
ATOM     20  C   UNL     1       2.530   3.725   0.124  0.00  0.00    +0.000 C 
BRANCH  20  21
ATOM     21  O   UNL     1       3.369   3.237  -0.925  0.00  0.00    +0.000 OA
ATOM     22  H   UNL     1       4.266   3.651  -0.851  0.00  0.00    +0.000 HD
ENDBRANCH  20  21
BRANCH  20  23
ATOM     23  C   UNL     1       1.145   3.085   0.008  0.00  0.00    +0.000 C 
BRANCH  23  24
ATOM     24  O   UNL     1       0.522   3.513  -1.205  0.00  0.00    +0.000 OA
ATOM     25  H   UNL     1       1.078   3.239  -1.977  0.00  0.00    +0.000 HD
ENDBRANCH  23  24
BRANCH  23  26
ATOM     26  C   UNL     1       1.286   1.562  -0.002  0.00  0.00    +0.000 C 
BRANCH  26  27
ATOM     27  O   UNL     1      -0.011   0.963   0.007  0.00  0.00    +0.000 OA
ATOM     28  H   UNL     1      -0.514   1.252  -0.795  0.00  0.00    +0.000 HD
ENDBRANCH  26  27
ENDBRANCH  23  26
ENDBRANCH  20  23
ENDBRANCH  17  20
ENDBRANCH  16  17
ENDBRANCH   6  15
TORSDOF 10
ENDMDL
MODEL      209
REMARK  Name = ZINC07873396
REMARK  8 active torsions:
REMARK  status: ('A' for Active; 'I' for Inactive)
REMARK    1  A    between atoms: C_1  and  C_2
REMARK    2  A    between atoms: C_2  and  C_3
REMARK    3  A    between atoms: C_3  and  N_4
REMARK    4  A    between atoms: C_8  and  S_10
REMARK    5  A    between atoms: S_10  and  C_11
REMARK    6  A    between atoms: C_11  and  C_12
REMARK    7  A    between atoms: N_17  and  C_18
REMARK    8  A    between atoms: C_18  and  C_19
REMARK                            x       y       z     vdW  Elec       q    Type
REMARK                         _______ _______ _______ _____ _____    ______ ____
ROOT
ATOM      1  C   UNL     1      -0.742   1.585  -1.213  0.00  0.00    +0.000 C 
ATOM      2  O   UNL     1      -1.736   2.268  -1.089  0.00  0.00    +0.000 OA
ATOM      3  N   UNL     1      -0.288   1.272  -2.443  0.00  0.00    +0.000 N 
ATOM      4  C   UNL     1      -0.940   1.719  -3.535  0.00  0.00    +0.000 C 
ATOM      5  O   UNL     1      -1.937   2.403  -3.410  0.00  0.00    +0.000 OA
ATOM      6  N   UNL     1      -0.487   1.406  -4.765  0.00  0.00    +0.000 N 
ATOM      7  H   UNL     1       0.556   0.692  -2.549  0.00  0.00    +0.000 HD
ATOM      8  H   UNL     1       0.357   0.826  -4.871  0.00  0.00    +0.000 HD
ENDROOT
BRANCH   6   9
ATOM      9  C   UNL     1      -1.196   1.891  -5.952  0.00  0.00    +0.000 C 
BRANCH   9  10
ATOM     10  C   UNL     1      -0.480   1.398  -7.211  0.00  0.00    +0.000 C 
ATOM     11  F   UNL     1      -0.461  -0.001  -7.218  0.00  0.00    +0.000 F 
ATOM     12  F   UNL     1      -1.156   1.861  -8.344  0.00  0.00    +0.000 F 
ATOM     13  F   UNL     1       0.833   1.882  -7.221  0.00  0.00    +0.000 F 
ENDBRANCH   9  10
ENDBRANCH   6   9
BRANCH   1  14
ATOM     14  C   UNL     1      -0.013   1.086   0.008  0.00  0.00    +0.000 C 
BRANCH  14  15
ATOM     15  S   UNL     1      -0.862   1.671   1.500  0.00  0.00    +0.000 S 
BRANCH  15  20
ATOM     16  N   UNL     1       1.708  -0.087   6.391  0.00  0.00    +0.000 N 
ATOM     17  C   UNL     1       1.271   0.211   5.106  0.00  0.00    +0.000 A 
ATOM     18  N   UNL     1       1.785  -0.143   3.945  0.00  0.00    +0.000 NA
ATOM     19  N   UNL     1       1.186   0.267   2.776  0.00  0.00    +0.000 NA
ATOM     20  C   UNL     1       0.099   1.013   2.823  0.00  0.00    +0.000 A 
ATOM     21  S   UNL     1      -0.135   1.184   4.586  0.00  0.00    +0.000 S 
ATOM     22  H   UNL     1       1.190   0.269   7.207  0.00  0.00    +0.000 HD
BRANCH  16  23
ATOM     23  C   UNL     1       2.906  -0.909   6.585  0.00  0.00    +0.000 C 
BRANCH  23  25
ATOM     24  C   UNL     1       4.417  -1.943   8.284  0.00  0.00    +0.000 C 
ATOM     25  C   UNL     1       3.166  -1.085   8.082  0.00  0.00    +0.000 C 
ENDBRANCH  23  25
ENDBRANCH  16  23
ENDBRANCH  15  20
ENDBRANCH  14  15
ENDBRANCH   1  14
TORSDOF 7
ENDMDL
MODEL      210
REMARK  Name = ZINC23581705
REMARK  9 active torsions:
REMARK  status: ('A' for Active; 'I' for Inactive)
REMARK    1  A    between atoms: C_4  and  C_7
REMARK    2  A    between atoms: C_7  and  O_8
REMARK    3  A    between atoms: O_8  and  C_9
REMARK    4  A    between atoms: C_9  and  C_10
REMARK    5  A    between atoms: C_10  and  N_11
REMARK    6  A    between atoms: C_15  and  N_18
REMARK    7  A    between atoms: C_22  and  C_24
REMARK    8  A    between atoms: C_24  and  C_25
REMARK    9  A    between atoms: C_25  and  N_26
REMARK                            x       y       z     vdW  Elec       q    Type
REMARK                         _______ _______ _______ _____ _____    ______ ____
ROOT
ATOM      1  N   UNL     1      -2.200   1.074   3.601  0.00  0.00    +0.000 N 
ATOM      2  C   UNL     1      -2.410  -0.076   4.272  0.00  0.00    +0.000 A 
ATOM      3  O   UNL     1      -1.490  -0.616   4.869  0.00  0.00    +0.000 OA
ATOM      4  C   UNL     1      -3.690  -0.645   4.286  0.00  0.00    +0.000 A 
ATOM      5  C   UNL     1      -4.712  -0.017   3.598  0.00  0.00    +0.000 A 
ATOM      6  C   UNL     1      -4.444   1.183   2.904  0.00  0.00    +0.000 A 
ATOM      7  N   UNL     1      -3.245   1.695   2.911  0.00  0.00    +0.000 NA
ENDROOT
BRANCH   5   8
ATOM      8  N   UNL     1      -5.984  -0.560   3.589  0.00  0.00    +0.000 N 
ATOM      9  C   UNL     1      -6.381  -0.952   2.229  0.00  0.00    +0.000 C 
ATOM     10  C   UNL     1      -7.767  -1.600   2.274  0.00  0.00    +0.000 C 
ATOM     11  O   UNL     1      -8.695  -0.688   2.867  0.00  0.00    +0.000 OA
ATOM     12  C   UNL     1      -8.340  -0.285   4.192  0.00  0.00    +0.000 C 
ATOM     13  C   UNL     1      -6.960   0.377   4.167  0.00  0.00    +0.000 C 
BRANCH  12  14
ATOM     14  C   UNL     1      -9.375   0.712   4.718  0.00  0.00    +0.000 C 
BRANCH  14  15
ATOM     15  C   UNL     1     -10.729   0.014   4.861  0.00  0.00    +0.000 C 
BRANCH  15  16
ATOM     16  N   UNL     1     -11.722   0.972   5.365  0.00  0.00    +0.000 N 
ATOM     17  H   UNL     1     -11.810   1.757   4.705  0.00  0.00    +0.000 HD
ATOM     18  H   UNL     1     -11.422   1.328   6.284  0.00  0.00    +0.000 HD
ATOM     19  H   UNL     1     -12.634   0.503   5.462  0.00  0.00    +0.000 HD
ENDBRANCH  15  16
ENDBRANCH  14  15
ENDBRANCH  12  14
ENDBRANCH   5   8
BRANCH   1  20
ATOM     20  C   UNL     1      -0.864   1.675   3.590  0.00  0.00    +0.000 C 
BRANCH  20  21
ATOM     21  C   UNL     1      -0.068   1.127   2.404  0.00  0.00    +0.000 C 
BRANCH  21  22
ATOM     22  O   UNL     1      -0.682   1.547   1.184  0.00  0.00    +0.000 OA
BRANCH  22  23
ATOM     23  C   UNL     1      -0.013   1.086   0.008  0.00  0.00    +0.000 C 
BRANCH  23  27
ATOM     24  C   UNL     1      -2.079   2.501  -3.453  0.00  0.00    +0.000 A 
ATOM     25  C   UNL     1      -1.066   3.259  -2.894  0.00  0.00    +0.000 A 
ATOM     26  C   UNL     1      -0.398   2.801  -1.774  0.00  0.00    +0.000 A 
ATOM     27  C   UNL     1      -0.742   1.585  -1.213  0.00  0.00    +0.000 A 
ATOM     28  C   UNL     1      -1.750   0.825  -1.775  0.00  0.00    +0.000 A 
ATOM     29  C   UNL     1      -2.422   1.285  -2.892  0.00  0.00    +0.000 A 
ENDBRANCH  23  27
ENDBRANCH  22  23
ENDBRANCH  21  22
ENDBRANCH  20  21
ENDBRANCH   1  20
TORSDOF 9
ENDMDL
MODEL      211
REMARK  Name = ZINC20636295
REMARK  4 active torsions:
REMARK  status: ('A' for Active; 'I' for Inactive)
REMARK    1  A    between atoms: C_4  and  C_7
REMARK    2  A    between atoms: C_7  and  N_8
REMARK    3  A    between atoms: C_9  and  C_11
REMARK    4  A    between atoms: C_11  and  C_12
REMARK                            x       y       z     vdW  Elec       q    Type
REMARK                         _______ _______ _______ _____ _____    ______ ____
ROOT
ATOM      1  C   UNL     1      -0.729   1.579   1.267  0.00  0.00    +0.000 A 
ATOM      2  C   UNL     1      -0.100   0.999   2.528  0.00  0.00    +0.000 A 
ATOM      3  O   UNL     1      -0.078  -0.192   2.768  0.00  0.00    +0.000 OA
ATOM      4  N   UNL     1       0.412   1.896   3.329  0.00  0.00    +0.000 NA
ATOM      5  C   UNL     1       0.402   3.197   3.093  0.00  0.00    +0.000 A 
ATOM      6  S   UNL     1      -0.407   3.363   1.566  0.00  0.00    +0.000 S 
ATOM      7  N   UNL     1       0.915   4.194   3.880  0.00  0.00    +0.000 N 
ATOM      8  C   UNL     1       1.532   3.881   5.074  0.00  0.00    +0.000 C 
ATOM      9  N   UNL     1       1.626   2.639   5.454  0.00  0.00    +0.000 N 
ATOM     10  N   UNL     1       2.048   4.881   5.864  0.00  0.00    +0.000 N 
ATOM     11  H   UNL     1       0.841   5.176   3.580  0.00  0.00    +0.000 HD
ATOM     12  H   UNL     1       1.240   1.889   4.862  0.00  0.00    +0.000 HD
ATOM     13  H   UNL     1       2.086   2.406   6.345  0.00  0.00    +0.000 HD
ATOM     14  H   UNL     1       1.974   5.864   5.564  0.00  0.00    +0.000 HD
ATOM     15  H   UNL     1       2.508   4.648   6.755  0.00  0.00    +0.000 HD
ENDROOT
BRANCH   1  16
ATOM     16  C   UNL     1      -0.013   1.086   0.008  0.00  0.00    +0.000 C 
BRANCH  16  18
ATOM     17  N   UNL     1      -0.288   1.272  -2.443  0.00  0.00    +0.000 N 
ATOM     18  C   UNL     1      -0.742   1.585  -1.213  0.00  0.00    +0.000 C 
ATOM     19  O   UNL     1      -1.736   2.268  -1.088  0.00  0.00    +0.000 OA
ATOM     20  H   UNL     1       0.556   0.692  -2.549  0.00  0.00    +0.000 HD
BRANCH  17  21
ATOM     21  C   UNL     1      -0.997   1.758  -3.630  0.00  0.00    +0.000 C 
BRANCH  21  25
ATOM     22  C   UNL     1       1.002   0.380  -7.145  0.00  0.00    +0.000 A 
ATOM     23  C   UNL     1       0.001  -0.384  -6.575  0.00  0.00    +0.000 A 
ATOM     24  C   UNL     1      -0.646   0.062  -5.437  0.00  0.00    +0.000 A 
ATOM     25  C   UNL     1      -0.292   1.272  -4.870  0.00  0.00    +0.000 A 
ATOM     26  C   UNL     1       0.706   2.038  -5.443  0.00  0.00    +0.000 A 
ATOM     27  C   UNL     1       1.357   1.590  -6.577  0.00  0.00    +0.000 A 
ENDBRANCH  21  25
ENDBRANCH  17  21
ENDBRANCH  16  18
ENDBRANCH   1  16
TORSDOF 4
ENDMDL
MODEL      212
REMARK  Name = ZINC04650528
REMARK  10 active torsions:
REMARK  status: ('A' for Active; 'I' for Inactive)
REMARK    1  A    between atoms: C_1  and  C_2
REMARK    2  A    between atoms: C_2  and  O_3
REMARK    3  A    between atoms: C_5  and  C_16
REMARK    4  A    between atoms: N_6  and  C_11
REMARK    5  A    between atoms: C_11  and  C_12
REMARK    6  A    between atoms: C_12  and  N_23
REMARK    7  A    between atoms: C_13  and  C_14
REMARK    8  A    between atoms: C_13  and  N_23
REMARK    9  A    between atoms: C_14  and  O_15
REMARK   10  A    between atoms: C_19  and  O_22
REMARK                            x       y       z     vdW  Elec       q    Type
REMARK                         _______ _______ _______ _____ _____    ______ ____
ROOT
ATOM      1  C   UNL     1       2.529   4.887  -1.252  0.00  0.00    +0.000 C 
ATOM      2  C   UNL     1       1.174   4.227  -1.225  0.00  0.00    +0.000 C 
ATOM      3  C   UNL     1       0.714   3.503   0.014  0.00  0.00    +0.000 C 
ATOM      4  C   UNL     1      -0.818   3.382   0.028  0.00  0.00    +0.000 C 
ATOM      5  N   UNL     1       0.862   1.112   0.266  0.00  0.00    +0.000 N 
ATOM      6  C   UNL     1       1.887   1.626   0.958  0.00  0.00    +0.000 C 
ATOM      7  O   UNL     1       2.701   0.966   1.571  0.00  0.00    +0.000 OA
ATOM      8  C   UNL     1       1.901   3.113   0.871  0.00  0.00    +0.000 C 
ATOM      9  O   UNL     1       2.700   3.860   1.383  0.00  0.00    +0.000 OA
ENDROOT
BRANCH   4  10
ATOM     10  C   UNL     1      -1.375   4.026   1.272  0.00  0.00    +0.000 A 
ATOM     11  C   UNL     1      -1.356   3.340   2.472  0.00  0.00    +0.000 A 
ATOM     12  C   UNL     1      -1.860   3.930   3.614  0.00  0.00    +0.000 A 
ATOM     13  C   UNL     1      -2.397   5.208   3.554  0.00  0.00    +0.000 A 
ATOM     14  C   UNL     1      -2.420   5.892   2.348  0.00  0.00    +0.000 A 
ATOM     15  C   UNL     1      -1.909   5.300   1.209  0.00  0.00    +0.000 A 
BRANCH  13  16
ATOM     16  O   UNL     1      -2.898   5.789   4.676  0.00  0.00    +0.000 OA
ATOM     17  H   UNL     1      -2.152   5.773   5.326  0.00  0.00    +0.000 HD
ENDBRANCH  13  16
ENDBRANCH   4  10
BRANCH   2  18
ATOM     18  O   UNL     1       0.458   4.278  -2.196  0.00  0.00    +0.000 OA
ATOM     19  H   UNL     1       1.005   3.901  -2.929  0.00  0.00    +0.000 HD
ENDBRANCH   2  18
BRANCH   5  20
ATOM     20  C   UNL     1       0.580  -0.321   0.151  0.00  0.00    +0.000 C 
BRANCH  20  21
ATOM     21  C   UNL     1      -0.349  -0.750   1.289  0.00  0.00    +0.000 C 
BRANCH  21  22
ATOM     22  N   UNL     1      -0.629  -2.193   1.166  0.00  0.00    +0.000 N 
ATOM     23  H   UNL     1      -1.078  -2.378   0.258  0.00  0.00    +0.000 HD
ATOM     24  H   UNL     1       0.256  -2.719   1.218  0.00  0.00    +0.000 HD
BRANCH  22  25
ATOM     25  C   UNL     1      -1.524  -2.635   2.252  0.00  0.00    +0.000 C 
BRANCH  25  26
ATOM     26  C   UNL     1      -1.796  -4.133   2.099  0.00  0.00    +0.000 C 
BRANCH  26  27
ATOM     27  O   UNL     1      -0.579  -4.860   2.287  0.00  0.00    +0.000 OA
ATOM     28  H   UNL     1      -0.224  -4.680   3.193  0.00  0.00    +0.000 HD
ENDBRANCH  26  27
ENDBRANCH  25  26
ENDBRANCH  22  25
ENDBRANCH  21  22
ENDBRANCH  20  21
ENDBRANCH   5  20
TORSDOF 9
ENDMDL
MODEL      213
REMARK  Name = ZINC05840091
REMARK  8 active torsions:
REMARK  status: ('A' for Active; 'I' for Inactive)
REMARK    1  A    between atoms: C_1  and  C_2
REMARK    2  A    between atoms: C_2  and  N_23
REMARK    3  A    between atoms: C_3  and  C_4
REMARK    4  A    between atoms: C_3  and  N_23
REMARK    5  A    between atoms: C_5  and  C_6
REMARK    6  A    between atoms: C_5  and  N_23
REMARK    7  A    between atoms: C_8  and  N_13
REMARK    8  A    between atoms: C_11  and  O_12
REMARK                            x       y       z     vdW  Elec       q    Type
REMARK                         _______ _______ _______ _____ _____    ______ ____
ROOT
ATOM      1  C   UNL     1      -4.276   0.512   2.151  0.00  0.00    +0.000 A 
ATOM      2  C   UNL     1      -4.201  -0.643   2.904  0.00  0.00    +0.000 A 
ATOM      3  C   UNL     1      -5.320  -1.452   3.046  0.00  0.00    +0.000 A 
ATOM      4  C   UNL     1      -6.515  -1.099   2.431  0.00  0.00    +0.000 A 
ATOM      5  C   UNL     1      -6.588   0.056   1.679  0.00  0.00    +0.000 A 
ATOM      6  C   UNL     1      -5.471   0.867   1.542  0.00  0.00    +0.000 A 
ENDROOT
BRANCH   3   7
ATOM      7  N   UNL     1      -5.245  -2.623   3.809  0.00  0.00    +0.000 N 
ATOM      8  C   UNL     1      -6.319  -3.040   4.512  0.00  0.00    +0.000 C 
ATOM      9  N   UNL     1      -7.417  -2.309   4.587  0.00  0.00    +0.000 NA
ATOM     10  C   UNL     1      -8.484  -2.652   5.300  0.00  0.00    +0.000 C 
ATOM     11  N   UNL     1      -8.437  -3.579   6.252  0.00  0.00    +0.000 NA
ATOM     12  C   UNL     1      -7.254  -4.161   6.434  0.00  0.00    +0.000 C 
ATOM     13  N   UNL     1      -6.610  -4.652   7.445  0.00  0.00    +0.000 NA
ATOM     14  C   UNL     1      -5.315  -4.841   7.157  0.00  0.00    +0.000 C 
ATOM     15  N   UNL     1      -5.042  -4.663   5.895  0.00  0.00    +0.000 NA
ATOM     16  C   UNL     1      -6.315  -4.362   5.236  0.00  0.00    +0.000 C 
ATOM     17  H   UNL     1      -4.370  -3.166   3.835  0.00  0.00    +0.000 HD
ENDBRANCH   3   7
BRANCH   6  18
ATOM     18  O   UNL     1      -5.546   2.008   0.806  0.00  0.00    +0.000 OA
ATOM     19  H   UNL     1      -4.838   1.916   0.120  0.00  0.00    +0.000 HD
ENDBRANCH   6  18
BRANCH   1  20
ATOM     20  C   UNL     1      -3.062   1.391   1.997  0.00  0.00    +0.000 C 
BRANCH  20  21
ATOM     21  N   UNL     1      -2.469   1.149   0.665  0.00  0.00    +0.000 N 
ATOM     22  H   UNL     1      -3.225   1.081  -0.031  0.00  0.00    +0.000 HD
BRANCH  21  24
ATOM     23  C   UNL     1      -1.297  -0.456  -0.762  0.00  0.00    +0.000 C 
ATOM     24  C   UNL     1      -1.709  -0.118   0.673  0.00  0.00    +0.000 C 
ENDBRANCH  21  24
BRANCH  21  25
ATOM     25  C   UNL     1      -1.578   2.270   0.297  0.00  0.00    +0.000 C 
ATOM     26  C   UNL     1      -2.438   3.483  -0.065  0.00  0.00    +0.000 C 
ENDBRANCH  21  25
ENDBRANCH  20  21
ENDBRANCH   1  20
TORSDOF 6
ENDMDL
MODEL      214
REMARK  Name = ZINC01871948
REMARK  8 active torsions:
REMARK  status: ('A' for Active; 'I' for Inactive)
REMARK    1  A    between atoms: C_1  and  C_2
REMARK    2  A    between atoms: C_6  and  C_13
REMARK    3  A    between atoms: C_13  and  C_14
REMARK    4  A    between atoms: C_13  and  S_18
REMARK    5  A    between atoms: C_14  and  N_15
REMARK    6  A    between atoms: S_18  and  C_19
REMARK    7  A    between atoms: C_19  and  C_20
REMARK    8  A    between atoms: C_20  and  N_21
REMARK                            x       y       z     vdW  Elec       q    Type
REMARK                         _______ _______ _______ _____ _____    ______ ____
ROOT
ATOM      1  C   UNL     1      -0.270   7.635   0.044  0.00  0.00    +0.000 C 
ATOM      2  C   UNL     1      -0.712   6.194   0.040  0.00  0.00    +0.000 C 
ATOM      3  O   UNL     1      -1.893   5.923   0.050  0.00  0.00    +0.000 OA
ATOM      4  N   UNL     1       0.206   5.207   0.027  0.00  0.00    +0.000 N 
ATOM      5  C   UNL     1       1.568   5.393   0.015  0.00  0.00    +0.000 A 
ATOM      6  C   UNL     1       2.191   4.206   0.003  0.00  0.00    +0.000 A 
ATOM      7  C   UNL     1       1.150   3.172   0.008  0.00  0.00    +0.000 A 
ATOM      8  C   UNL     1      -0.079   3.853   0.023  0.00  0.00    +0.000 A 
ATOM      9  C   UNL     1      -1.263   3.128   0.030  0.00  0.00    +0.000 A 
ATOM     10  C   UNL     1      -1.225   1.749   0.017  0.00  0.00    +0.000 A 
ATOM     11  C   UNL     1      -0.013   1.076   0.008  0.00  0.00    +0.000 A 
ATOM     12  C   UNL     1       1.173   1.777   0.000  0.00  0.00    +0.000 A 
ENDROOT
BRANCH   6  13
ATOM     13  C   UNL     1       3.680   3.977  -0.012  0.00  0.00    +0.000 C 
BRANCH  13  14
ATOM     14  C   UNL     1       4.179   3.768   1.419  0.00  0.00    +0.000 C 
BRANCH  14  15
ATOM     15  N   UNL     1       5.627   3.545   1.404  0.00  0.00    +0.000 N 
ATOM     16  O   UNL     1       6.345   4.255   0.722  0.00  0.00    +0.000 OA
ATOM     17  O   UNL     1       6.112   2.650   2.072  0.00  0.00    +0.000 OA
ENDBRANCH  14  15
ENDBRANCH  13  14
BRANCH  13  18
ATOM     18  S   UNL     1       4.055   2.506  -1.005  0.00  0.00    +0.000 S 
BRANCH  18  19
ATOM     19  C   UNL     1       5.868   2.458  -1.050  0.00  0.00    +0.000 C 
BRANCH  19  20
ATOM     20  C   UNL     1       6.325   1.248  -1.867  0.00  0.00    +0.000 C 
BRANCH  20  21
ATOM     21  N   UNL     1       7.798   1.206  -1.880  0.00  0.00    +0.000 N 
ATOM     22  H   UNL     1       8.152   1.121  -0.916  0.00  0.00    +0.000 HD
ATOM     23  H   UNL     1       8.167   2.067  -2.308  0.00  0.00    +0.000 HD
ATOM     24  H   UNL     1       8.111   0.393  -2.429  0.00  0.00    +0.000 HD
ENDBRANCH  20  21
ENDBRANCH  19  20
ENDBRANCH  18  19
ENDBRANCH  13  18
ENDBRANCH   6  13
TORSDOF 7
ENDMDL
MODEL      215
REMARK  Name = ZINC15672823
REMARK  9 active torsions:
REMARK  status: ('A' for Active; 'I' for Inactive)
REMARK    1  A    between atoms: C_1  and  C_2
REMARK    2  A    between atoms: C_2  and  C_3
REMARK    3  A    between atoms: C_2  and  C_4
REMARK    4  A    between atoms: C_2  and  N_5
REMARK    5  A    between atoms: C_6  and  C_8
REMARK    6  A    between atoms: C_8  and  C_9
REMARK    7  A    between atoms: C_13  and  C_14
REMARK    8  A    between atoms: C_14  and  C_15
REMARK    9  A    between atoms: C_17  and  C_20
REMARK                            x       y       z     vdW  Elec       q    Type
REMARK                         _______ _______ _______ _____ _____    ______ ____
ROOT
ATOM      1  C   UNL     1       3.432   1.466   3.866  0.00  0.00    +0.000 C 
ATOM      2  C   UNL     1       4.189   0.867   2.679  0.00  0.00    +0.000 C 
ATOM      3  C   UNL     1       4.256  -0.654   2.837  0.00  0.00    +0.000 C 
ATOM      4  C   UNL     1       4.203  -0.462   5.252  0.00  0.00    +0.000 C 
ATOM      5  C   UNL     1       4.135   1.064   5.166  0.00  0.00    +0.000 C 
ATOM      6  N   UNL     1       4.948  -0.993   4.094  0.00  0.00    +0.000 N 
ATOM      7  H   UNL     1       5.022  -2.017   4.178  0.00  0.00    +0.000 HD
ATOM      8  H   UNL     1       5.895  -0.588   4.084  0.00  0.00    +0.000 HD
ENDROOT
BRANCH   1   9
ATOM      9  C   UNL     1       1.996   0.937   3.877  0.00  0.00    +0.000 C 
BRANCH   9  11
ATOM     10  N   UNL     1      -0.020   1.094   2.454  0.00  0.00    +0.000 N 
ATOM     11  C   UNL     1       1.268   1.436   2.656  0.00  0.00    +0.000 C 
ATOM     12  O   UNL     1       1.840   2.145   1.857  0.00  0.00    +0.000 OA
ATOM     13  H   UNL     1      -0.506   0.491   3.133  0.00  0.00    +0.000 HD
BRANCH  10  15
ATOM     14  C   UNL     1      -0.013   1.086   0.008  0.00  0.00    +0.000 C 
ATOM     15  C   UNL     1      -0.729   1.579   1.267  0.00  0.00    +0.000 C 
ATOM     16  C   UNL     1      -0.750   3.109   1.275  0.00  0.00    +0.000 C 
ATOM     17  C   UNL     1      -2.164   1.050   1.278  0.00  0.00    +0.000 C 
ENDBRANCH  10  15
ENDBRANCH   9  11
ENDBRANCH   1   9
BRANCH   5  18
ATOM     18  C   UNL     1       3.351   1.609   6.361  0.00  0.00    +0.000 C 
BRANCH  18  19
ATOM     19  C   UNL     1       4.107   1.319   7.632  0.00  0.00    +0.000 A 
ATOM     20  C   UNL     1       4.505   2.257   8.610  0.00  0.00    +0.000 A 
ATOM     21  C   UNL     1       5.150   1.498   9.549  0.00  0.00    +0.000 A 
ATOM     22  O   UNL     1       5.100   0.229   9.101  0.00  0.00    +0.000 OA
ATOM     23  N   UNL     1       4.516   0.155   8.046  0.00  0.00    +0.000 NA
BRANCH  21  24
ATOM     24  C   UNL     1       5.773   1.974  10.797  0.00  0.00    +0.000 C 
ATOM     25  O   UNL     1       5.744   3.155  11.079  0.00  0.00    +0.000 OA
ATOM     26  O   UNL     1       6.374   1.098  11.626  0.00  0.00    +0.000 OA
ENDBRANCH  21  24
ENDBRANCH  18  19
ENDBRANCH   5  18
TORSDOF 6
ENDMDL
MODEL      216
REMARK  Name = ZINC20189813
REMARK  9 active torsions:
REMARK  status: ('A' for Active; 'I' for Inactive)
REMARK    1  A    between atoms: C_1  and  O_2
REMARK    2  A    between atoms: O_2  and  C_3
REMARK    3  A    between atoms: C_6  and  N_9
REMARK    4  A    between atoms: N_9  and  S_10
REMARK    5  A    between atoms: S_10  and  C_13
REMARK    6  A    between atoms: C_15  and  C_21
REMARK    7  A    between atoms: C_18  and  O_19
REMARK    8  A    between atoms: O_19  and  C_20
REMARK    9  A    between atoms: C_21  and  N_22
REMARK                            x       y       z     vdW  Elec       q    Type
REMARK                         _______ _______ _______ _____ _____    ______ ____
ROOT
ATOM      1  C   UNL     1      -2.288   1.122   2.769  0.00  0.00    +0.000 A 
ATOM      2  C   UNL     1      -1.787   0.512   1.635  0.00  0.00    +0.000 A 
ATOM      3  C   UNL     1      -0.791   1.127   0.900  0.00  0.00    +0.000 A 
ATOM      4  C   UNL     1      -0.289   2.352   1.301  0.00  0.00    +0.000 A 
ATOM      5  C   UNL     1      -0.789   2.968   2.431  0.00  0.00    +0.000 A 
ATOM      6  C   UNL     1      -1.789   2.353   3.170  0.00  0.00    +0.000 A 
ENDROOT
BRANCH   1   7
ATOM      7  S   UNL     1      -3.558   0.338   3.705  0.00  0.00    +0.000 S 
ATOM      8  O   UNL     1      -4.552   1.324   3.946  0.00  0.00    +0.000 OA
ATOM      9  O   UNL     1      -3.846  -0.890   3.049  0.00  0.00    +0.000 OA
BRANCH   7  10
ATOM     10  N   UNL     1      -2.911  -0.053   5.178  0.00  0.00    +0.000 NA
BRANCH  10  14
ATOM     11  C   UNL     1       0.265  -2.743   5.413  0.00  0.00    +0.000 A 
ATOM     12  C   UNL     1       0.299  -1.565   6.145  0.00  0.00    +0.000 A 
ATOM     13  C   UNL     1      -0.753  -0.673   6.068  0.00  0.00    +0.000 A 
ATOM     14  C   UNL     1      -1.844  -0.956   5.257  0.00  0.00    +0.000 A 
ATOM     15  C   UNL     1      -1.880  -2.138   4.529  0.00  0.00    +0.000 A 
ATOM     16  C   UNL     1      -0.824  -3.025   4.602  0.00  0.00    +0.000 A 
BRANCH  11  18
ATOM     17  C   UNL     1       1.200  -4.813   4.709  0.00  0.00    +0.000 C 
ATOM     18  O   UNL     1       1.301  -3.620   5.490  0.00  0.00    +0.000 OA
ENDBRANCH  11  18
ENDBRANCH  10  14
ENDBRANCH   7  10
ENDBRANCH   1   7
BRANCH   6  19
ATOM     19  O   UNL     1      -2.280   2.955   4.286  0.00  0.00    +0.000 OA
ATOM     20  C   UNL     1      -1.800   4.269   4.578  0.00  0.00    +0.000 C 
ENDBRANCH   6  19
BRANCH   3  21
ATOM     21  C   UNL     1      -0.247   0.460  -0.337  0.00  0.00    +0.000 C 
BRANCH  21  22
ATOM     22  N   UNL     1      -1.031   0.882  -1.506  0.00  0.00    +0.000 N 
ATOM     23  H   UNL     1      -0.967   1.904  -1.612  0.00  0.00    +0.000 HD
ATOM     24  H   UNL     1      -2.016   0.611  -1.375  0.00  0.00    +0.000 HD
ATOM     25  H   UNL     1      -0.660   0.426  -2.351  0.00  0.00    +0.000 HD
ENDBRANCH  21  22
ENDBRANCH   3  21
TORSDOF 7
ENDMDL
MODEL      217
REMARK  Name = ZINC02905111
REMARK  9 active torsions:
REMARK  status: ('A' for Active; 'I' for Inactive)
REMARK    1  A    between atoms: C_1  and  N_24
REMARK    2  A    between atoms: C_4  and  N_7
REMARK    3  A    between atoms: N_7  and  N_8
REMARK    4  A    between atoms: C_9  and  C_11
REMARK    5  A    between atoms: N_13  and  C_14
REMARK    6  A    between atoms: C_16  and  O_22
REMARK    7  A    between atoms: C_19  and  O_20
REMARK    8  A    between atoms: O_20  and  C_21
REMARK    9  A    between atoms: O_22  and  C_23
REMARK                            x       y       z     vdW  Elec       q    Type
REMARK                         _______ _______ _______ _____ _____    ______ ____
ROOT
ATOM      1  N   UNL     1      -1.766   2.523  -3.544  0.00  0.00    +0.000 N 
ATOM      2  C   UNL     1      -2.298   3.026  -4.676  0.00  0.00    +0.000 C 
ATOM      3  O   UNL     1      -3.433   3.455  -4.673  0.00  0.00    +0.000 OA
ATOM      4  H   UNL     1      -0.802   2.158  -3.546  0.00  0.00    +0.000 HD
ENDROOT
BRANCH   2   5
ATOM      5  C   UNL     1      -1.492   3.053  -5.932  0.00  0.00    +0.000 C 
ATOM      6  O   UNL     1      -0.356   2.623  -5.934  0.00  0.00    +0.000 OA
ATOM      7  N   UNL     1      -2.024   3.556  -7.064  0.00  0.00    +0.000 N 
ATOM      8  H   UNL     1      -2.961   3.983  -7.046  0.00  0.00    +0.000 HD
BRANCH   7   9
ATOM      9  C   UNL     1      -1.304   3.498  -8.261  0.00  0.00    +0.000 A 
ATOM     10  C   UNL     1       0.078   3.627  -8.249  0.00  0.00    +0.000 A 
ATOM     11  C   UNL     1       0.788   3.564  -9.437  0.00  0.00    +0.000 A 
ATOM     12  C   UNL     1       0.119   3.382 -10.639  0.00  0.00    +0.000 A 
ATOM     13  C   UNL     1      -1.258   3.258 -10.655  0.00  0.00    +0.000 A 
ATOM     14  C   UNL     1      -1.973   3.315  -9.470  0.00  0.00    +0.000 A 
BRANCH  14  15
ATOM     15  O   UNL     1      -3.328   3.192  -9.486  0.00  0.00    +0.000 OA
ATOM     16  C   UNL     1      -3.947   3.008 -10.761  0.00  0.00    +0.000 C 
ENDBRANCH  14  15
BRANCH  11  17
ATOM     17  O   UNL     1       2.143   3.685  -9.426  0.00  0.00    +0.000 OA
ATOM     18  C   UNL     1       2.811   3.616 -10.687  0.00  0.00    +0.000 C 
ENDBRANCH  11  17
ENDBRANCH   7   9
ENDBRANCH   2   5
BRANCH   1  19
ATOM     19  N   UNL     1      -2.522   2.497  -2.365  0.00  0.00    +0.000 N 
ATOM     20  H   UNL     1      -3.510   2.789  -2.381  0.00  0.00    +0.000 HD
BRANCH  19  24
ATOM     21  C   UNL     1      -0.055   1.037   2.435  0.00  0.00    +0.000 C 
ATOM     22  C   UNL     1      -2.102   1.302   1.176  0.00  0.00    +0.000 C 
ATOM     23  C   UNL     1      -2.744   2.171   0.091  0.00  0.00    +0.000 C 
ATOM     24  C   UNL     1      -1.941   2.076  -1.176  0.00  0.00    +0.000 C 
ATOM     25  C   UNL     1      -0.717   1.614  -1.205  0.00  0.00    +0.000 C 
ATOM     26  C   UNL     1       0.006   1.127   0.017  0.00  0.00    +0.000 C 
ATOM     27  N   UNL     1      -0.666   1.634   1.229  0.00  0.00    +0.000 N 
ATOM     28  H   UNL     1      -0.556   2.657   1.272  0.00  0.00    +0.000 HD
ENDBRANCH  19  24
ENDBRANCH   1  19
TORSDOF 6
ENDMDL
MODEL      218
REMARK  Name = ZINC02338152
REMARK  9 active torsions:
REMARK  status: ('A' for Active; 'I' for Inactive)
REMARK    1  A    between atoms: C_1  and  C_2
REMARK    2  A    between atoms: C_5  and  S_8
REMARK    3  A    between atoms: S_8  and  N_11
REMARK    4  A    between atoms: N_11  and  C_12
REMARK    5  A    between atoms: C_14  and  C_21
REMARK    6  A    between atoms: C_16  and  N_18
REMARK    7  A    between atoms: N_18  and  C_19
REMARK    8  A    between atoms: C_19  and  C_20
REMARK    9  A    between atoms: C_20  and  N_22
REMARK                            x       y       z     vdW  Elec       q    Type
REMARK                         _______ _______ _______ _____ _____    ______ ____
ROOT
ATOM      1  C   UNL     1      -1.196   3.276   2.418  0.00  0.00    +0.000 A 
ATOM      2  N   UNL     1       0.023   3.608   2.021  0.00  0.00    +0.000 NA
ATOM      3  C   UNL     1       0.796   4.382   2.768  0.00  0.00    +0.000 A 
ATOM      4  C   UNL     1       0.322   4.840   3.982  0.00  0.00    +0.000 A 
ATOM      5  C   UNL     1      -0.965   4.469   4.377  0.00  0.00    +0.000 A 
ATOM      6  N   UNL     1      -1.688   3.693   3.575  0.00  0.00    +0.000 NA
ATOM      7  C   UNL     1       2.179   4.757   2.300  0.00  0.00    +0.000 C 
ENDROOT
BRANCH   5   8
ATOM      8  N   UNL     1      -1.482   4.904   5.587  0.00  0.00    +0.000 N 
ATOM      9  H   UNL     1      -2.432   4.626   5.871  0.00  0.00    +0.000 HD
BRANCH   8  10
ATOM     10  C   UNL     1      -0.676   5.759   6.463  0.00  0.00    +0.000 C 
BRANCH  10  11
ATOM     11  C   UNL     1      -1.474   6.093   7.724  0.00  0.00    +0.000 C 
BRANCH  11  12
ATOM     12  N   UNL     1      -0.663   6.970   8.587  0.00  0.00    +0.000 N 
ATOM     13  H   UNL     1      -0.438   7.840   8.084  0.00  0.00    +0.000 HD
ATOM     14  H   UNL     1       0.208   6.489   8.851  0.00  0.00    +0.000 HD
ATOM     15  H   UNL     1      -1.197   7.198   9.438  0.00  0.00    +0.000 HD
ENDBRANCH  11  12
ENDBRANCH  10  11
ENDBRANCH   8  10
ENDBRANCH   5   8
BRANCH   1  16
ATOM     16  N   UNL     1      -1.974   2.469   1.607  0.00  0.00    +0.000 NA
BRANCH  16  17
ATOM     17  S   UNL     1      -1.554   2.238   0.022  0.00  0.00    +0.000 S 
ATOM     18  O   UNL     1      -1.304   3.526  -0.523  0.00  0.00    +0.000 OA
ATOM     19  O   UNL     1      -2.519   1.353  -0.529  0.00  0.00    +0.000 OA
BRANCH  17  24
ATOM     20  C   UNL     1       3.711  -0.707  -0.038  0.00  0.00    +0.000 C 
ATOM     21  C   UNL     1       2.396   0.029  -0.022  0.00  0.00    +0.000 A 
ATOM     22  C   UNL     1       1.208  -0.679  -0.013  0.00  0.00    +0.000 A 
ATOM     23  C   UNL     1       0.002  -0.004   0.002  0.00  0.00    +0.000 A 
ATOM     24  C   UNL     1      -0.017   1.378   0.010  0.00  0.00    +0.000 A 
ATOM     25  C   UNL     1       1.171   2.086   0.002  0.00  0.00    +0.000 A 
ATOM     26  C   UNL     1       2.377   1.411  -0.015  0.00  0.00    +0.000 A 
ENDBRANCH  17  24
ENDBRANCH  16  17
ENDBRANCH   1  16
TORSDOF 7
ENDMDL
MODEL      219
REMARK  Name = ZINC05445113
REMARK  6 active torsions:
REMARK  status: ('A' for Active; 'I' for Inactive)
REMARK    1  A    between atoms: C_4  and  C_7
REMARK    2  A    between atoms: N_11  and  C_12
REMARK    3  A    between atoms: C_12  and  C_13
REMARK    4  A    between atoms: C_13  and  C_14
REMARK    5  A    between atoms: C_14  and  C_15
REMARK    6  A    between atoms: C_15  and  S_16
REMARK                            x       y       z     vdW  Elec       q    Type
REMARK                         _______ _______ _______ _____ _____    ______ ____
ROOT
ATOM      1  C   UNL     1       0.846   1.688   3.095  0.00  0.00    +0.000 A 
ATOM      2  C   UNL     1       1.558   1.065   4.081  0.00  0.00    +0.000 A 
ATOM      3  S   UNL     1       0.649  -0.467   4.232  0.00  0.00    +0.000 S 
ATOM      4  C   UNL     1      -0.580  -0.125   2.981  0.00  0.00    +0.000 A 
ATOM      5  N   UNL     1      -0.209   1.072   2.566  0.00  0.00    +0.000 N 
ATOM      6  N   UNL     1      -1.641  -0.908   2.558  0.00  0.00    +0.000 N 
ATOM      7  H   UNL     1      -1.690  -1.805   3.062  0.00  0.00    +0.000 HD
ATOM      8  H   UNL     1      -2.323  -0.659   1.827  0.00  0.00    +0.000 HD
ENDROOT
BRANCH   1  12
ATOM      9  C   UNL     1       1.989   5.550   1.732  0.00  0.00    +0.000 A 
ATOM     10  C   UNL     1       2.164   5.208   3.061  0.00  0.00    +0.000 A 
ATOM     11  C   UNL     1       1.795   3.956   3.509  0.00  0.00    +0.000 A 
ATOM     12  C   UNL     1       1.245   3.035   2.620  0.00  0.00    +0.000 A 
ATOM     13  C   UNL     1       1.075   3.382   1.280  0.00  0.00    +0.000 A 
ATOM     14  C   UNL     1       1.442   4.639   0.845  0.00  0.00    +0.000 A 
ENDBRANCH   1  12
BRANCH   5  15
ATOM     15  C   UNL     1      -0.974   1.737   1.508  0.00  0.00    +0.000 C 
BRANCH  15  16
ATOM     16  C   UNL     1      -0.543   1.190   0.146  0.00  0.00    +0.000 C 
BRANCH  16  17
ATOM     17  C   UNL     1      -1.222   1.994  -0.965  0.00  0.00    +0.000 C 
BRANCH  17  18
ATOM     18  C   UNL     1      -0.790   1.447  -2.327  0.00  0.00    +0.000 C 
BRANCH  18  19
ATOM     19  S   UNL     1      -1.595   2.401  -3.644  0.00  0.00    +0.000 S 
ATOM     20  O   UNL     1      -2.995   2.158  -3.638  0.00  0.00    +0.000 OA
ATOM     21  O   UNL     1      -1.090   3.729  -3.665  0.00  0.00    +0.000 OA
ATOM     22  O   UNL     1      -1.098   1.776  -4.939  0.00  0.00    +0.000 OA
ENDBRANCH  18  19
ENDBRANCH  17  18
ENDBRANCH  16  17
ENDBRANCH  15  16
ENDBRANCH   5  15
TORSDOF 6
ENDMDL
MODEL      220
REMARK  Name = ZINC02538462
REMARK  10 active torsions:
REMARK  status: ('A' for Active; 'I' for Inactive)
REMARK    1  A    between atoms: C_1  and  C_2
REMARK    2  A    between atoms: C_2  and  N_3
REMARK    3  A    between atoms: C_4  and  C_20
REMARK    4  A    between atoms: C_5  and  C_9
REMARK    5  A    between atoms: C_6  and  C_8
REMARK    6  A    between atoms: C_13  and  S_15
REMARK    7  A    between atoms: S_15  and  C_16
REMARK    8  A    between atoms: C_16  and  C_17
REMARK    9  A    between atoms: C_17  and  C_18
REMARK   10  A    between atoms: C_17  and  N_22
REMARK                            x       y       z     vdW  Elec       q    Type
REMARK                         _______ _______ _______ _____ _____    ______ ____
ROOT
ATOM      1  C   UNK     1      -5.262   3.325   5.242  0.00  0.00    +0.000 A 
ATOM      2  C   UNK     1      -4.498   2.743   6.258  0.00  0.00    +0.000 A 
ATOM      3  C   UNK     1      -3.200   2.364   5.972  0.00  0.00    +0.000 A 
ATOM      4  N   UNK     1      -2.721   2.562   4.753  0.00  0.00    +0.000 NA
ATOM      5  C   UNK     1      -3.467   3.116   3.808  0.00  0.00    +0.000 A 
ATOM      6  N   UNK     1      -4.714   3.498   4.041  0.00  0.00    +0.000 NA
ENDROOT
BRANCH   1   9
ATOM      7  N   UNK     1      -8.499   4.932   5.564  0.00  0.00    +0.000 N 
ATOM      8  C   UNK     1      -7.216   4.947   5.155  0.00  0.00    +0.000 A 
ATOM      9  C   UNK     1      -6.659   3.748   5.499  0.00  0.00    +0.000 A 
ATOM     10  C   UNK     1      -7.654   2.989   6.148  0.00  0.00    +0.000 A 
ATOM     11  N   UNK     1      -8.748   3.702   6.183  0.00  0.00    +0.000 NA
ATOM     12  C   UNK     1      -7.485   1.599   6.704  0.00  0.00    +0.000 C 
ATOM     13  C   UNK     1      -6.521   6.081   4.445  0.00  0.00    +0.000 C 
BRANCH   7  15
ATOM     14  C   UNK     1      -9.399   6.954   6.604  0.00  0.00    +0.000 C 
ATOM     15  C   UNK     1      -9.466   6.020   5.394  0.00  0.00    +0.000 C 
ENDBRANCH   7  15
ENDBRANCH   1   9
BRANCH   5  16
ATOM     16  S   UNK     1      -2.781   3.357   2.203  0.00  0.00    +0.000 S 
BRANCH  16  17
ATOM     17  C   UNK     1      -1.122   2.683   2.466  0.00  0.00    +0.000 C 
BRANCH  17  18
ATOM     18  C   UNK     1      -0.317   2.788   1.169  0.00  0.00    +0.000 C 
BRANCH  18  19
ATOM     19  N   UNK     1      -0.137   4.211   0.832  0.00  0.00    +0.000 N 
ATOM     20  H   UNK     1       0.372   4.687   1.590  0.00  0.00    +0.000 HD
ATOM     21  H   UNK     1      -1.056   4.657   0.701  0.00  0.00    +0.000 HD
ATOM     22  H   UNK     1       0.405   4.287  -0.041  0.00  0.00    +0.000 HD
ENDBRANCH  18  19
BRANCH  18  23
ATOM     23  C   UNK     1       1.020   2.117   1.352  0.00  0.00    +0.000 C 
ATOM     24  O   UNK     1       2.005   2.782   1.572  0.00  0.00    +0.000 OA
ATOM     25  O   UNK     1       1.118   0.781   1.265  0.00  0.00    +0.000 OA
ENDBRANCH  18  23
ENDBRANCH  17  18
ENDBRANCH  16  17
ENDBRANCH   5  16
TORSDOF 7
ENDMDL
MODEL      221
REMARK  Name = ZINC03376800
REMARK  9 active torsions:
REMARK  status: ('A' for Active; 'I' for Inactive)
REMARK    1  A    between atoms: C_1  and  C_2
REMARK    2  A    between atoms: C_3  and  C_18
REMARK    3  A    between atoms: C_4  and  C_17
REMARK    4  A    between atoms: C_6  and  C_7
REMARK    5  A    between atoms: C_7  and  C_9
REMARK    6  A    between atoms: C_9  and  S_10
REMARK    7  A    between atoms: S_10  and  C_11
REMARK    8  A    between atoms: C_18  and  O_20
REMARK    9  A    between atoms: O_20  and  C_21
REMARK                            x       y       z     vdW  Elec       q    Type
REMARK                         _______ _______ _______ _____ _____    ______ ____
ROOT
ATOM      1  C   UNL     1      -2.482   1.278   0.020  0.00  0.00    +0.000 C 
ATOM      2  O   UNL     1      -3.404   2.068   0.028  0.00  0.00    +0.000 OA
ENDROOT
BRANCH   1   8
ATOM      3  C   UNL     1      -1.659   4.276   0.040  0.00  0.00    +0.000 C 
ATOM      4  C   UNL     1      -0.755   3.070   0.025  0.00  0.00    +0.000 A 
ATOM      5  C   UNL     1       0.657   3.077   0.012  0.00  0.00    +0.000 A 
ATOM      6  C   UNL     1       1.072   1.757   0.001  0.00  0.00    +0.000 A 
ATOM      7  N   UNL     1      -0.011   0.966   0.007  0.00  0.00    +0.000 N 
ATOM      8  C   UNL     1      -1.147   1.749   0.016  0.00  0.00    +0.000 A 
ATOM      9  C   UNL     1       2.503   1.286  -0.015  0.00  0.00    +0.000 C 
ATOM     10  H   UNL     1       0.003  -0.064   0.006  0.00  0.00    +0.000 HD
BRANCH   5  11
ATOM     11  C   UNL     1       1.525   4.267   0.011  0.00  0.00    +0.000 C 
ATOM     12  O   UNL     1       1.874   4.763  -1.042  0.00  0.00    +0.000 OA
BRANCH  11  13
ATOM     13  O   UNL     1       1.933   4.804   1.177  0.00  0.00    +0.000 OA
ATOM     14  C   UNL     1       2.787   5.976   1.099  0.00  0.00    +0.000 C 
ENDBRANCH  11  13
ENDBRANCH   5  11
ENDBRANCH   1   8
BRANCH   1  15
ATOM     15  C   UNL     1      -2.758  -0.203   0.014  0.00  0.00    +0.000 C 
BRANCH  15  16
ATOM     16  S   UNL     1      -4.551  -0.484   0.020  0.00  0.00    +0.000 S 
BRANCH  16  17
ATOM     17  C   UNL     1      -4.707  -2.239   0.013  0.00  0.00    +0.000 A 
ATOM     18  N   UNL     1      -5.880  -2.941   0.014  0.00  0.00    +0.000 N 
ATOM     19  C   UNL     1      -5.574  -4.273   0.006  0.00  0.00    +0.000 A 
ATOM     20  N   UNL     1      -4.269  -4.389  -0.001  0.00  0.00    +0.000 NA
ATOM     21  N   UNL     1      -3.719  -3.101  -0.002  0.00  0.00    +0.000 NA
ATOM     22  N   UNL     1      -6.487  -5.319   0.004  0.00  0.00    +0.000 N 
ATOM     23  H   UNL     1      -6.827  -2.537   0.021  0.00  0.00    +0.000 HD
ATOM     24  H   UNL     1      -7.481  -5.047   0.010  0.00  0.00    +0.000 HD
ATOM     25  H   UNL     1      -6.205  -6.310  -0.003  0.00  0.00    +0.000 HD
ENDBRANCH  16  17
ENDBRANCH  15  16
ENDBRANCH   1  15
TORSDOF 6
ENDMDL
MODEL      222
REMARK  Name = ZINC00016244
REMARK  10 active torsions:
REMARK  status: ('A' for Active; 'I' for Inactive)
REMARK    1  A    between atoms: C_1  and  N_2
REMARK    2  A    between atoms: N_2  and  C_3
REMARK    3  A    between atoms: N_2  and  C_17
REMARK    4  A    between atoms: C_3  and  C_4
REMARK    5  A    between atoms: C_4  and  C_5
REMARK    6  A    between atoms: C_4  and  O_16
REMARK    7  A    between atoms: C_8  and  N_11
REMARK    8  A    between atoms: N_11  and  S_12
REMARK    9  A    between atoms: S_12  and  C_15
REMARK   10  A    between atoms: C_19  and  N_22
REMARK                            x       y       z     vdW  Elec       q    Type
REMARK                         _______ _______ _______ _____ _____    ______ ____
ROOT
ATOM      1  C   UNL     1       0.176   3.454   2.722  0.00  0.00    +0.000 C 
ENDROOT
BRANCH   1   2
ATOM      2  C   UNL     1       1.160   3.623   3.851  0.00  0.00    +0.000 A 
ATOM      3  C   UNL     1       0.704   3.876   5.131  0.00  0.00    +0.000 A 
ATOM      4  C   UNL     1       1.602   4.026   6.169  0.00  0.00    +0.000 A 
ATOM      5  C   UNL     1       2.966   3.935   5.923  0.00  0.00    +0.000 A 
ATOM      6  C   UNL     1       3.422   3.686   4.635  0.00  0.00    +0.000 A 
ATOM      7  C   UNL     1       2.517   3.531   3.603  0.00  0.00    +0.000 A 
BRANCH   5   8
ATOM      8  N   UNL     1       3.878   4.091   6.970  0.00  0.00    +0.000 N 
ATOM      9  H   UNL     1       4.012   3.333   7.654  0.00  0.00    +0.000 HD
BRANCH   8  10
ATOM     10  S   UNL     1       4.744   5.496   7.111  0.00  0.00    +0.000 S 
ATOM     11  O   UNL     1       5.559   5.306   8.259  0.00  0.00    +0.000 OA
ATOM     12  O   UNL     1       5.329   5.691   5.831  0.00  0.00    +0.000 OA
ATOM     13  C   UNL     1       3.502   6.779   7.431  0.00  0.00    +0.000 C 
ENDBRANCH   8  10
ENDBRANCH   5   8
ENDBRANCH   1   2
BRANCH   1  14
ATOM     14  O   UNL     1      -0.886   4.398   2.870  0.00  0.00    +0.000 OA
ATOM     15  H   UNL     1      -1.346   4.246   3.733  0.00  0.00    +0.000 HD
ENDBRANCH   1  14
BRANCH   1  16
ATOM     16  C   UNL     1      -0.395   2.035   2.752  0.00  0.00    +0.000 C 
BRANCH  16  18
ATOM     17  C   UNL     1      -0.695   1.315   0.337  0.00  0.00    +0.000 C 
ATOM     18  N   UNL     1      -1.259   1.832   1.587  0.00  0.00    +0.000 N 
BRANCH  18  19
ATOM     19  C   UNL     1      -2.615   2.129   1.666  0.00  0.00    +0.000 A 
ATOM     20  C   UNL     1      -3.446   1.842   0.592  0.00  0.00    +0.000 A 
ATOM     21  C   UNL     1      -4.802   2.140   0.689  0.00  0.00    +0.000 A 
ATOM     22  C   UNL     1      -5.269   2.729   1.867  0.00  0.00    +0.000 A 
ATOM     23  C   UNL     1      -4.381   2.989   2.887  0.00  0.00    +0.000 A 
ATOM     24  N   UNL     1      -3.050   2.705   2.826  0.00  0.00    +0.000 N 
ATOM     25  H   UNL     1      -2.411   2.911   3.607  0.00  0.00    +0.000 HD
BRANCH  21  26
ATOM     26  N   UNL     1      -5.670   1.863  -0.363  0.00  0.00    +0.000 N 
ATOM     27  H   UNL     1      -5.301   1.433  -1.223  0.00  0.00    +0.000 HD
ATOM     28  H   UNL     1      -6.672   2.087  -0.284  0.00  0.00    +0.000 HD
ENDBRANCH  21  26
ENDBRANCH  18  19
ENDBRANCH  16  18
ENDBRANCH   1  16
TORSDOF 8
ENDMDL
MODEL      223
REMARK  Name = ZINC11191692
REMARK  9 active torsions:
REMARK  status: ('A' for Active; 'I' for Inactive)
REMARK    1  A    between atoms: C_1  and  C_2
REMARK    2  A    between atoms: C_2  and  O_3
REMARK    3  A    between atoms: O_3  and  C_4
REMARK    4  A    between atoms: C_4  and  C_6
REMARK    5  A    between atoms: C_7  and  C_13
REMARK    6  A    between atoms: C_13  and  S_14
REMARK    7  A    between atoms: S_14  and  C_15
REMARK    8  A    between atoms: C_18  and  C_21
REMARK    9  A    between atoms: N_19  and  N_20
REMARK                            x       y       z     vdW  Elec       q    Type
REMARK                         _______ _______ _______ _____ _____    ______ ____
ROOT
ATOM      1  C   UNL     1       1.354  -0.668  -0.125  0.00  0.00    +0.000 C 
ATOM      2  C   UNL     1       2.449   0.123  -0.111  0.00  0.00    +0.000 C 
ATOM      3  N   UNL     1       2.337   1.479   0.009  0.00  0.00    +0.000 N 
ATOM      4  C   UNL     1       1.167   2.121   0.120  0.00  0.00    +0.000 C 
ATOM      5  O   UNL     1       1.169   3.332   0.223  0.00  0.00    +0.000 OA
ATOM      6  N   UNL     1      -0.012   1.468   0.122  0.00  0.00    +0.000 N 
ATOM      7  C   UNL     1      -0.001   0.001  -0.003  0.00  0.00    +0.000 C 
ATOM      8  H   UNL     1       3.201   2.039   0.015  0.00  0.00    +0.000 HD
ATOM      9  H   UNL     1      -0.900   1.983   0.209  0.00  0.00    +0.000 HD
ENDROOT
BRANCH   1  10
ATOM     10  C   UNL     1       1.468  -2.072  -0.250  0.00  0.00    +0.000 C 
ATOM     11  O   UNL     1       1.276  -2.604  -1.327  0.00  0.00    +0.000 OA
BRANCH  10  12
ATOM     12  O   UNL     1       1.790  -2.821   0.825  0.00  0.00    +0.000 OA
BRANCH  12  14
ATOM     13  C   UNL     1       2.259  -4.909   1.948  0.00  0.00    +0.000 C 
ATOM     14  C   UNL     1       1.888  -4.233   0.626  0.00  0.00    +0.000 C 
ENDBRANCH  12  14
ENDBRANCH  10  12
ENDBRANCH   1  10
BRANCH   2  15
ATOM     15  C   UNL     1       3.815  -0.501  -0.230  0.00  0.00    +0.000 C 
BRANCH  15  16
ATOM     16  S   UNL     1       4.463  -0.222  -1.896  0.00  0.00    +0.000 S 
BRANCH  16  17
ATOM     17  C   UNL     1       6.022  -1.031  -1.758  0.00  0.00    +0.000 A 
ATOM     18  N   UNL     1       6.494  -1.640  -0.695  0.00  0.00    +0.000 NA
ATOM     19  N   UNL     1       7.660  -2.119  -0.947  0.00  0.00    +0.000 NA
ATOM     20  C   UNL     1       7.999  -1.845  -2.175  0.00  0.00    +0.000 A 
ATOM     21  N   UNL     1       6.966  -1.148  -2.737  0.00  0.00    +0.000 N 
ATOM     22  C   UNL     1       9.289  -2.232  -2.852  0.00  0.00    +0.000 C 
BRANCH  21  23
ATOM     23  N   UNL     1       6.895  -0.665  -4.013  0.00  0.00    +0.000 N 
ATOM     24  H   UNL     1       6.025  -0.162  -4.239  0.00  0.00    +0.000 HD
ATOM     25  H   UNL     1       7.643  -0.785  -4.711  0.00  0.00    +0.000 HD
ENDBRANCH  21  23
ENDBRANCH  16  17
ENDBRANCH  15  16
ENDBRANCH   2  15
TORSDOF 7
ENDMDL
MODEL      224
REMARK  Name = ZINC23989735
REMARK  9 active torsions:
REMARK  status: ('A' for Active; 'I' for Inactive)
REMARK    1  A    between atoms: C_1  and  C_2
REMARK    2  A    between atoms: N_9  and  C_10
REMARK    3  A    between atoms: C_10  and  C_11
REMARK    4  A    between atoms: C_11  and  N_12
REMARK    5  A    between atoms: N_12  and  C_13
REMARK    6  A    between atoms: C_13  and  C_14
REMARK    7  A    between atoms: C_14  and  O_15
REMARK    8  A    between atoms: N_16  and  C_23
REMARK    9  A    between atoms: N_19  and  C_22
REMARK                            x       y       z     vdW  Elec       q    Type
REMARK                         _______ _______ _______ _____ _____    ______ ____
ROOT
ATOM      1  C   UNL     1       4.538  -2.112  -0.052  0.00  0.00    +0.000 C 
ATOM      2  C   UNL     1       3.348  -1.187  -0.036  0.00  0.00    +0.000 A 
ATOM      3  C   UNL     1       3.393   0.142  -0.029  0.00  0.00    +0.000 A 
ATOM      4  N   UNL     1       2.095   0.621  -0.015  0.00  0.00    +0.000 N 
ATOM      5  C   UNL     1       1.308   1.763  -0.001  0.00  0.00    +0.000 A 
ATOM      6  C   UNL     1      -0.016   1.326   0.009  0.00  0.00    +0.000 A 
ATOM      7  N   UNL     1       0.002  -0.004   0.002  0.00  0.00    +0.000 NA
ATOM      8  C   UNL     1       1.254  -0.439  -0.012  0.00  0.00    +0.000 A 
ATOM      9  N   UNL     1       2.021  -1.573  -0.026  0.00  0.00    +0.000 N 
ATOM     10  N   UNL     1      -1.031   2.271   0.019  0.00  0.00    +0.000 N 
ATOM     11  C   UNL     1      -0.729   3.583   0.026  0.00  0.00    +0.000 A 
ATOM     12  O   UNL     1      -1.631   4.399   0.037  0.00  0.00    +0.000 OA
ATOM     13  N   UNL     1       0.544   4.014   0.017  0.00  0.00    +0.000 N 
ATOM     14  C   UNL     1       1.574   3.142   0.003  0.00  0.00    +0.000 A 
ATOM     15  O   UNL     1       2.723   3.548  -0.006  0.00  0.00    +0.000 OA
ATOM     16  C   UNL     1       0.818   5.453   0.021  0.00  0.00    +0.000 C 
ATOM     17  C   UNL     1      -2.432   1.841   0.024  0.00  0.00    +0.000 C 
ENDROOT
BRANCH   9  18
ATOM     18  C   UNL     1       1.524  -2.951  -0.029  0.00  0.00    +0.000 C 
BRANCH  18  19
ATOM     19  C   UNL     1       1.337  -3.423  -1.472  0.00  0.00    +0.000 C 
BRANCH  19  20
ATOM     20  N   UNL     1       0.838  -4.805  -1.476  0.00  0.00    +0.000 N 
ATOM     21  H   UNL     1       1.515  -5.412  -0.992  0.00  0.00    +0.000 HD
ATOM     22  H   UNL     1      -0.060  -4.843  -0.974  0.00  0.00    +0.000 HD
BRANCH  20  23
ATOM     23  C   UNL     1       0.647  -5.292  -2.848  0.00  0.00    +0.000 C 
BRANCH  23  24
ATOM     24  C   UNL     1       0.128  -6.731  -2.811  0.00  0.00    +0.000 C 
BRANCH  24  25
ATOM     25  O   UNL     1      -1.172  -6.753  -2.217  0.00  0.00    +0.000 OA
ATOM     26  H   UNL     1      -1.789  -6.194  -2.752  0.00  0.00    +0.000 HD
ENDBRANCH  24  25
ENDBRANCH  23  24
ENDBRANCH  20  23
ENDBRANCH  19  20
ENDBRANCH  18  19
ENDBRANCH   9  18
TORSDOF 6
ENDMDL
MODEL      225
REMARK  Name = ZINC24939824
REMARK  9 active torsions:
REMARK  status: ('A' for Active; 'I' for Inactive)
REMARK    1  A    between atoms: C_1  and  C_2
REMARK    2  A    between atoms: C_2  and  C_3
REMARK    3  A    between atoms: C_2  and  N_6
REMARK    4  A    between atoms: C_3  and  O_4
REMARK    5  A    between atoms: O_4  and  C_5
REMARK    6  A    between atoms: C_10  and  C_12
REMARK    7  A    between atoms: C_12  and  C_13
REMARK    8  A    between atoms: C_12  and  N_14
REMARK    9  A    between atoms: C_18  and  C_20
REMARK                            x       y       z     vdW  Elec       q    Type
REMARK                         _______ _______ _______ _____ _____    ______ ____
ROOT
ATOM      1  N   UNL     1       1.404  -2.533   0.112  0.00  0.00    +0.000 N 
ATOM      2  C   UNL     1       1.938  -3.770   0.134  0.00  0.00    +0.000 C 
ATOM      3  O   UNL     1       1.764  -4.524  -0.804  0.00  0.00    +0.000 OA
ATOM      4  N   UNL     1       2.666  -4.172   1.195  0.00  0.00    +0.000 N 
ATOM      5  C   UNL     1       3.201  -5.409   1.216  0.00  0.00    +0.000 C 
ATOM      6  O   UNL     1       3.027  -6.160   0.281  0.00  0.00    +0.000 OA
ATOM      7  H   UNL     1       1.551  -1.895   0.907  0.00  0.00    +0.000 HD
ATOM      8  H   UNL     1       2.814  -3.533   1.989  0.00  0.00    +0.000 HD
ENDROOT
BRANCH   5   9
ATOM      9  C   UNL     1       4.014  -5.857   2.403  0.00  0.00    +0.000 C 
ATOM     10  C   UNL     1       5.220  -4.931   2.575  0.00  0.00    +0.000 C 
BRANCH   9  11
ATOM     11  N   UNL     1       4.480  -7.229   2.185  0.00  0.00    +0.000 N 
ATOM     12  C   UNL     1       5.246  -7.488   1.142  0.00  0.00    +0.000 A 
ATOM     13  C   UNL     1       5.710  -8.768   0.896  0.00  0.00    +0.000 A 
ATOM     14  C   UNL     1       5.362  -9.791   1.760  0.00  0.00    +0.000 A 
ATOM     15  C   UNL     1       4.548  -9.486   2.857  0.00  0.00    +0.000 A 
ATOM     16  C   UNL     1       4.126  -8.168   3.038  0.00  0.00    +0.000 A 
BRANCH  15  17
ATOM     17  C   UNL     1       4.146 -10.541   3.812  0.00  0.00    +0.000 C 
ATOM     18  O   UNL     1       3.439 -10.264   4.761  0.00  0.00    +0.000 OA
ATOM     19  N   UNL     1       4.564 -11.809   3.630  0.00  0.00    +0.000 N 
ATOM     20  H   UNL     1       5.164 -12.044   2.826  0.00  0.00    +0.000 HD
ATOM     21  H   UNL     1       4.284 -12.544   4.295  0.00  0.00    +0.000 HD
ENDBRANCH  15  17
ENDBRANCH   9  11
ENDBRANCH   5   9
BRANCH   1  23
ATOM     22  C   UNL     1      -0.835  -2.560  -0.871  0.00  0.00    +0.000 C 
ATOM     23  C   UNL     1       0.613  -2.097  -1.041  0.00  0.00    +0.000 C 
BRANCH  23  24
ATOM     24  C   UNL     1       0.652  -0.570  -1.138  0.00  0.00    +0.000 C 
BRANCH  24  25
ATOM     25  O   UNL     1       0.002  -0.004   0.002  0.00  0.00    +0.000 OA
ATOM     26  C   UNL     1      -0.017   1.425   0.010  0.00  0.00    +0.000 C 
ENDBRANCH  24  25
ENDBRANCH  23  24
ENDBRANCH   1  23
TORSDOF 6
ENDMDL
MODEL      226
REMARK  Name = ZINC06158515
REMARK  6 active torsions:
REMARK  status: ('A' for Active; 'I' for Inactive)
REMARK    1  A    between atoms: C_2  and  C_3
REMARK    2  A    between atoms: C_3  and  N_4
REMARK    3  A    between atoms: C_5  and  N_22
REMARK    4  A    between atoms: C_10  and  S_11
REMARK    5  A    between atoms: S_11  and  C_12
REMARK    6  A    between atoms: C_12  and  C_13
REMARK                            x       y       z     vdW  Elec       q    Type
REMARK                         _______ _______ _______ _____ _____    ______ ____
ROOT
ATOM      1  N   UNL     1       1.360  -1.673   1.114  0.00  0.00    +0.000 N 
ATOM      2  C   UNL     1       1.858  -1.265   2.287  0.00  0.00    +0.000 A 
ATOM      3  C   UNL     1       1.904  -2.145   3.360  0.00  0.00    +0.000 A 
ATOM      4  C   UNL     1       1.433  -3.449   3.180  0.00  0.00    +0.000 A 
ATOM      5  O   UNL     1       1.462  -4.251   4.100  0.00  0.00    +0.000 OA
ATOM      6  N   UNL     1       0.946  -3.806   1.974  0.00  0.00    +0.000 N 
ATOM      7  C   UNL     1       0.918  -2.904   0.953  0.00  0.00    +0.000 A 
ATOM      8  H   UNL     1       0.596  -4.763   1.823  0.00  0.00    +0.000 HD
ENDROOT
BRANCH   2   9
ATOM      9  N   UNL     1       2.320   0.028   2.430  0.00  0.00    +0.000 N 
ATOM     10  H   UNL     1       2.281   0.679   1.633  0.00  0.00    +0.000 HD
ATOM     11  H   UNL     1       2.704   0.341   3.334  0.00  0.00    +0.000 HD
ENDBRANCH   2   9
BRANCH   1  12
ATOM     12  C   UNL     1       1.310  -0.737  -0.011  0.00  0.00    +0.000 C 
BRANCH  12  14
ATOM     13  C   UNL     1      -0.025   1.307   0.011  0.00  0.00    +0.000 C 
ATOM     14  C   UNL     1      -0.006  -0.003   0.004  0.00  0.00    +0.000 C 
ENDBRANCH  12  14
ENDBRANCH   1  12
BRANCH   7  15
ATOM     15  S   UNL     1       0.279  -3.393  -0.614  0.00  0.00    +0.000 S 
BRANCH  15  16
ATOM     16  C   UNL     1      -0.157  -5.112  -0.253  0.00  0.00    +0.000 C 
BRANCH  16  17
ATOM     17  C   UNL     1      -0.742  -5.752  -1.486  0.00  0.00    +0.000 C 
ATOM     18  O   UNL     1      -0.852  -5.109  -2.508  0.00  0.00    +0.000 OA
ATOM     19  N   UNL     1      -1.141  -7.039  -1.453  0.00  0.00    +0.000 N 
ATOM     20  C   UNL     1      -1.778  -7.600  -2.559  0.00  0.00    +0.000 A 
ATOM     21  C   UNL     1      -2.282  -8.893  -2.481  0.00  0.00    +0.000 A 
ATOM     22  C   UNL     1      -2.912  -9.438  -3.586  0.00  0.00    +0.000 A 
ATOM     23  C   UNL     1      -3.017  -8.666  -4.736  0.00  0.00    +0.000 A 
ATOM     24  C   UNL     1      -2.493  -7.389  -4.742  0.00  0.00    +0.000 A 
ATOM     25  N   UNL     1      -1.903  -6.894  -3.671  0.00  0.00    +0.000 NA
ATOM     26  H   UNL     1      -0.976  -7.608  -0.610  0.00  0.00    +0.000 HD
ENDBRANCH  16  17
ENDBRANCH  15  16
ENDBRANCH   7  15
TORSDOF 6
ENDMDL
MODEL      227
REMARK  Name = ZINC05330831
REMARK  10 active torsions:
REMARK  status: ('A' for Active; 'I' for Inactive)
REMARK    1  A    between atoms: C_1  and  C_2
REMARK    2  A    between atoms: C_5  and  N_8
REMARK    3  A    between atoms: C_12  and  C_14
REMARK    4  A    between atoms: C_14  and  C_15
REMARK    5  A    between atoms: C_14  and  O_21
REMARK    6  A    between atoms: C_15  and  C_16
REMARK    7  A    between atoms: C_15  and  O_20
REMARK    8  A    between atoms: C_16  and  C_17
REMARK    9  A    between atoms: C_16  and  O_19
REMARK   10  A    between atoms: C_17  and  O_18
REMARK                            x       y       z     vdW  Elec       q    Type
REMARK                         _______ _______ _______ _____ _____    ______ ____
ROOT
ATOM      1  N   UNL     1      -3.265   3.515  -3.999  0.00  0.00    +0.000 N 
ATOM      2  C   UNL     1      -2.316   2.990  -3.134  0.00  0.00    +0.000 A 
ATOM      3  N   UNL     1      -1.099   2.524  -3.384  0.00  0.00    +0.000 NA
ATOM      4  N   UNL     1      -0.356   2.080  -2.466  0.00  0.00    +0.000 NA
ATOM      5  C   UNL     1      -0.742   2.042  -1.207  0.00  0.00    +0.000 A 
ATOM      6  S   UNL     1      -2.381   2.744  -1.361  0.00  0.00    +0.000 S 
ATOM      7  H   UNL     1      -4.205   3.752  -3.649  0.00  0.00    +0.000 HD
ENDROOT
BRANCH   1  12
ATOM      8  C   UNL     1      -1.974   4.358  -9.456  0.00  0.00    +0.000 C 
ATOM      9  C   UNL     1      -2.317   4.134  -8.006  0.00  0.00    +0.000 A 
ATOM     10  C   UNL     1      -3.635   3.950  -7.630  0.00  0.00    +0.000 A 
ATOM     11  C   UNL     1      -3.953   3.744  -6.301  0.00  0.00    +0.000 A 
ATOM     12  C   UNL     1      -2.947   3.723  -5.343  0.00  0.00    +0.000 A 
ATOM     13  C   UNL     1      -1.625   3.914  -5.724  0.00  0.00    +0.000 A 
ATOM     14  C   UNL     1      -1.314   4.114  -7.055  0.00  0.00    +0.000 A 
ENDBRANCH   1  12
BRANCH   5  15
ATOM     15  C   UNL     1      -0.010   1.551   0.016  0.00  0.00    +0.000 C 
BRANCH  15  16
ATOM     16  O   UNL     1       1.333   2.040  -0.006  0.00  0.00    +0.000 OA
ATOM     17  H   UNL     1       1.325   3.030  -0.010  0.00  0.00    +0.000 HD
ENDBRANCH  15  16
BRANCH  15  18
ATOM     18  C   UNL     1       0.004   0.021   0.023  0.00  0.00    +0.000 C 
BRANCH  18  19
ATOM     19  O   UNL     1       0.560  -0.456  -1.204  0.00  0.00    +0.000 OA
ATOM     20  H   UNL     1       1.486  -0.118  -1.301  0.00  0.00    +0.000 HD
ENDBRANCH  18  19
BRANCH  18  21
ATOM     21  C   UNL     1       0.853  -0.476   1.195  0.00  0.00    +0.000 C 
BRANCH  21  22
ATOM     22  O   UNL     1       2.156   0.105   1.119  0.00  0.00    +0.000 OA
ATOM     23  H   UNL     1       2.082   1.092   1.162  0.00  0.00    +0.000 HD
ENDBRANCH  21  22
BRANCH  21  24
ATOM     24  C   UNL     1       0.969  -2.000   1.130  0.00  0.00    +0.000 C 
BRANCH  24  25
ATOM     25  O   UNL     1       1.662  -2.474   2.286  0.00  0.00    +0.000 OA
ATOM     26  H   UNL     1       1.162  -2.217   3.100  0.00  0.00    +0.000 HD
ENDBRANCH  24  25
ENDBRANCH  21  24
ENDBRANCH  18  21
ENDBRANCH  15  18
ENDBRANCH   5  15
TORSDOF 9
ENDMDL
MODEL      228
REMARK  Name = ZINC27239387
REMARK  8 active torsions:
REMARK  status: ('A' for Active; 'I' for Inactive)
REMARK    1  A    between atoms: C_1  and  N_2
REMARK    2  A    between atoms: C_4  and  C_10
REMARK    3  A    between atoms: C_6  and  C_7
REMARK    4  A    between atoms: C_10  and  C_12
REMARK    5  A    between atoms: C_12  and  N_13
REMARK    6  A    between atoms: N_13  and  C_14
REMARK    7  A    between atoms: N_13  and  C_15
REMARK    8  A    between atoms: C_15  and  C_16
REMARK                            x       y       z     vdW  Elec       q    Type
REMARK                         _______ _______ _______ _____ _____    ______ ____
ROOT
ATOM      1  C   UNL     1      -0.977   1.722   1.397  0.00  0.00    +0.000 C 
ATOM      2  O   UNL     1      -1.958   2.433   1.445  0.00  0.00    +0.000 OA
ENDROOT
BRANCH   1   6
ATOM      3  C   UNL     1       0.069   1.112   6.244  0.00  0.00    +0.000 C 
ATOM      4  N   UNL     1       0.136   1.019   4.783  0.00  0.00    +0.000 N 
ATOM      5  C   UNL     1      -0.714   1.608   3.929  0.00  0.00    +0.000 A 
ATOM      6  C   UNL     1      -0.326   1.288   2.637  0.00  0.00    +0.000 A 
ATOM      7  C   UNL     1       0.816   0.457   2.743  0.00  0.00    +0.000 A 
ATOM      8  C   UNL     1       1.081   0.313   4.071  0.00  0.00    +0.000 A 
BRANCH   8   9
ATOM      9  C   UNL     1       2.183  -0.468   4.647  0.00  0.00    +0.000 C 
ATOM     10  O   UNL     1       2.262  -0.613   5.853  0.00  0.00    +0.000 OA
ATOM     11  N   UNL     1       3.108  -1.025   3.840  0.00  0.00    +0.000 N 
ATOM     12  H   UNL     1       3.042  -0.902   2.820  0.00  0.00    +0.000 HD
ATOM     13  H   UNL     1       3.881  -1.573   4.244  0.00  0.00    +0.000 HD
ENDBRANCH   8   9
ENDBRANCH   1   6
BRANCH   1  14
ATOM     14  C   UNL     1      -0.428   1.283   0.064  0.00  0.00    +0.000 C 
BRANCH  14  15
ATOM     15  N   UNL     1      -1.252   1.847  -1.014  0.00  0.00    +0.000 NA
ATOM     16  C   UNL     1      -1.138   3.311  -1.053  0.00  0.00    +0.000 C 
BRANCH  15  17
ATOM     17  C   UNL     1      -0.897   1.256  -2.311  0.00  0.00    +0.000 C 
BRANCH  17  18
ATOM     18  C   UNL     1      -1.913   1.667  -3.345  0.00  0.00    +0.000 C 
ATOM     19  O   UNL     1      -2.842   2.381  -3.032  0.00  0.00    +0.000 OA
ATOM     20  N   UNL     1      -1.790   1.240  -4.618  0.00  0.00    +0.000 N 
ATOM     21  C   UNL     1      -0.715   0.379  -5.133  0.00  0.00    +0.000 C 
ATOM     22  C   UNL     1      -0.974   0.176  -6.641  0.00  0.00    +0.000 C 
ATOM     23  C   UNL     1      -1.855   1.399  -7.008  0.00  0.00    +0.000 C 
ATOM     24  C   UNL     1      -2.708   1.564  -5.725  0.00  0.00    +0.000 C 
ENDBRANCH  17  18
ENDBRANCH  15  17
ENDBRANCH  14  15
ENDBRANCH   1  14
TORSDOF 6
ENDMDL
MODEL      229
REMARK  Name = ZINC23431666
REMARK  7 active torsions:
REMARK  status: ('A' for Active; 'I' for Inactive)
REMARK    1  A    between atoms: C_1  and  C_2
REMARK    2  A    between atoms: C_7  and  N_8
REMARK    3  A    between atoms: N_8  and  C_9
REMARK    4  A    between atoms: C_9  and  C_10
REMARK    5  A    between atoms: C_10  and  N_11
REMARK    6  A    between atoms: C_16  and  C_18
REMARK    7  A    between atoms: N_22  and  C_23
REMARK                            x       y       z     vdW  Elec       q    Type
REMARK                         _______ _______ _______ _____ _____    ______ ____
ROOT
ATOM      1  N   UNL     1      -2.526  -4.214   0.003  0.00  0.00    +0.000 N 
ATOM      2  C   UNL     1      -3.704  -4.940   0.009  0.00  0.00    +0.000 A 
ATOM      3  N   UNL     1      -4.861  -4.293   0.024  0.00  0.00    +0.000 NA
ATOM      4  C   UNL     1      -6.009  -4.951   0.030  0.00  0.00    +0.000 A 
ATOM      5  C   UNL     1      -5.997  -6.335   0.022  0.00  0.00    +0.000 A 
ATOM      6  C   UNL     1      -4.762  -6.990   0.007  0.00  0.00    +0.000 A 
ATOM      7  N   UNL     1      -3.647  -6.262  -0.004  0.00  0.00    +0.000 NA
ATOM      8  H   UNL     1      -1.619  -4.703  -0.008  0.00  0.00    +0.000 HD
ENDROOT
BRANCH   6   9
ATOM      9  C   UNL     1      -4.696  -8.469  -0.002  0.00  0.00    +0.000 A 
ATOM     10  N   UNL     1      -5.724  -9.292   0.009  0.00  0.00    +0.000 NA
ATOM     11  C   UNL     1      -5.294 -10.549  -0.007  0.00  0.00    +0.000 A 
ATOM     12  N   UNL     1      -3.985 -10.556  -0.019  0.00  0.00    +0.000 NA
ATOM     13  N   UNL     1      -3.568  -9.215  -0.016  0.00  0.00    +0.000 N 
ATOM     14  C   UNL     1      -2.188  -8.724  -0.026  0.00  0.00    +0.000 C 
ENDBRANCH   6   9
BRANCH   1  15
ATOM     15  C   UNL     1      -2.568  -2.750   0.011  0.00  0.00    +0.000 C 
BRANCH  15  16
ATOM     16  C   UNL     1      -1.141  -2.199   0.001  0.00  0.00    +0.000 C 
BRANCH  16  17
ATOM     17  N   UNL     1      -1.183  -0.734   0.009  0.00  0.00    +0.000 N 
ATOM     18  H   UNL     1      -2.089  -0.245   0.020  0.00  0.00    +0.000 HD
BRANCH  17  25
ATOM     19  C   UNL     1      -1.326   2.137   0.020  0.00  0.00    +0.000 C 
ATOM     20  C   UNL     1      -0.017   1.390   0.010  0.00  0.00    +0.000 A 
ATOM     21  C   UNL     1       1.179   2.077   0.002  0.00  0.00    +0.000 A 
ATOM     22  N   UNL     1       2.330   1.431  -0.013  0.00  0.00    +0.000 N 
ATOM     23  C   UNL     1       2.390   0.112  -0.020  0.00  0.00    +0.000 A 
ATOM     24  C   UNL     1       1.240  -0.648  -0.013  0.00  0.00    +0.000 A 
ATOM     25  C   UNL     1       0.002  -0.004   0.002  0.00  0.00    +0.000 A 
ATOM     26  H   UNL     1       3.207   1.971  -0.019  0.00  0.00    +0.000 HD
ENDBRANCH  17  25
ENDBRANCH  16  17
ENDBRANCH  15  16
ENDBRANCH   1  15
TORSDOF 5
ENDMDL
MODEL      230
REMARK  Name = ZINC19996022
REMARK  9 active torsions:
REMARK  status: ('A' for Active; 'I' for Inactive)
REMARK    1  A    between atoms: C_1  and  C_2
REMARK    2  A    between atoms: C_6  and  N_8
REMARK    3  A    between atoms: C_12  and  N_13
REMARK    4  A    between atoms: N_13  and  C_14
REMARK    5  A    between atoms: C_14  and  C_15
REMARK    6  A    between atoms: C_15  and  C_16
REMARK    7  A    between atoms: C_16  and  N_17
REMARK    8  A    between atoms: N_17  and  C_18
REMARK    9  A    between atoms: N_17  and  C_19
REMARK                            x       y       z     vdW  Elec       q    Type
REMARK                         _______ _______ _______ _____ _____    ______ ____
ROOT
ATOM      1  N   UNL     1       2.530   0.512  -0.465  0.00  0.00    +0.000 N 
ATOM      2  C   UNL     1       1.474  -0.205  -0.904  0.00  0.00    +0.000 C 
ATOM      3  O   UNL     1       1.630  -1.297  -1.417  0.00  0.00    +0.000 OA
ATOM      4  C   UNL     1       0.127   0.371  -0.745  0.00  0.00    +0.000 C 
ATOM      5  C   UNL     1      -1.001  -0.305  -1.171  0.00  0.00    +0.000 C 
ATOM      6  C   UNL     1       0.035   1.699  -0.112  0.00  0.00    +0.000 C 
ATOM      7  O   UNL     1      -1.042   2.241   0.050  0.00  0.00    +0.000 OA
ATOM      8  N   UNL     1       1.178   2.299   0.279  0.00  0.00    +0.000 N 
ATOM      9  C   UNL     1       2.372   1.716   0.103  0.00  0.00    +0.000 C 
ATOM     10  O   UNL     1       3.364   2.310   0.477  0.00  0.00    +0.000 OA
ATOM     11  H   UNL     1       1.132   3.227   0.723  0.00  0.00    +0.000 HD
ENDROOT
BRANCH   1  17
ATOM     12  C   UNL     1       6.639   0.030  -3.124  0.00  0.00    +0.000 C 
ATOM     13  C   UNL     1       5.834  -0.264  -1.884  0.00  0.00    +0.000 A 
ATOM     14  C   UNL     1       6.369  -1.055  -0.884  0.00  0.00    +0.000 A 
ATOM     15  C   UNL     1       5.634  -1.327   0.255  0.00  0.00    +0.000 A 
ATOM     16  C   UNL     1       4.363  -0.804   0.399  0.00  0.00    +0.000 A 
ATOM     17  C   UNL     1       3.821  -0.015  -0.606  0.00  0.00    +0.000 A 
ATOM     18  C   UNL     1       4.562   0.256  -1.748  0.00  0.00    +0.000 A 
ENDBRANCH   1  17
BRANCH   5  19
ATOM     19  N   UNL     1      -2.222   0.233  -0.978  0.00  0.00    +0.000 N 
ATOM     20  H   UNL     1      -2.321   1.105  -0.440  0.00  0.00    +0.000 HD
BRANCH  19  21
ATOM     21  C   UNL     1      -3.408  -0.423  -1.535  0.00  0.00    +0.000 C 
BRANCH  21  22
ATOM     22  C   UNL     1      -4.655   0.386  -1.175  0.00  0.00    +0.000 C 
BRANCH  22  23
ATOM     23  C   UNL     1      -5.893  -0.299  -1.756  0.00  0.00    +0.000 C 
BRANCH  23  24
ATOM     24  N   UNL     1      -7.091   0.478  -1.410  0.00  0.00    +0.000 N 
ATOM     25  C   UNL     1      -8.266  -0.011  -2.144  0.00  0.00    +0.000 C 
ATOM     26  C   UNL     1      -7.330   0.460   0.039  0.00  0.00    +0.000 C 
ATOM     27  H   UNL     1      -6.926   1.455  -1.691  0.00  0.00    +0.000 HD
ENDBRANCH  23  24
ENDBRANCH  22  23
ENDBRANCH  21  22
ENDBRANCH  19  21
ENDBRANCH   5  19
TORSDOF 6
ENDMDL
MODEL      231
REMARK  Name = ZINC26433617
REMARK  6 active torsions:
REMARK  status: ('A' for Active; 'I' for Inactive)
REMARK    1  A    between atoms: C_2  and  C_3
REMARK    2  A    between atoms: C_3  and  N_4
REMARK    3  A    between atoms: C_5  and  C_19
REMARK    4  A    between atoms: C_8  and  S_9
REMARK    5  A    between atoms: S_9  and  C_10
REMARK    6  A    between atoms: C_10  and  C_11
REMARK                            x       y       z     vdW  Elec       q    Type
REMARK                         _______ _______ _______ _____ _____    ______ ____
ROOT
ATOM      1  C   UNL     1       0.168   6.305   0.034  0.00  0.00    +0.000 C 
ENDROOT
BRANCH   1   2
ATOM      2  C   UNL     1       0.748   7.696   0.036  0.00  0.00    +0.000 A 
ATOM      3  N   UNL     1       1.007   8.300   1.183  0.00  0.00    +0.000 NA
ATOM      4  C   UNL     1       1.524   9.527   1.188  0.00  0.00    +0.000 A 
ATOM      5  N   UNL     1       1.770  10.148   0.040  0.00  0.00    +0.000 NA
ATOM      6  C   UNL     1       1.503   9.539  -1.111  0.00  0.00    +0.000 A 
ATOM      7  N   UNL     1       0.991   8.311  -1.108  0.00  0.00    +0.000 NA
ATOM      8  N   UNL     1       1.755  10.180  -2.306  0.00  0.00    +0.000 N 
ATOM      9  N   UNL     1       1.800  10.155   2.386  0.00  0.00    +0.000 N 
ATOM     10  H   UNL     1       2.151  11.131  -2.307  0.00  0.00    +0.000 HD
ATOM     11  H   UNL     1       1.548   9.708  -3.198  0.00  0.00    +0.000 HD
ATOM     12  H   UNL     1       1.605   9.674   3.276  0.00  0.00    +0.000 HD
ATOM     13  H   UNL     1       2.200  11.104   2.390  0.00  0.00    +0.000 HD
ENDBRANCH   1   2
BRANCH   1  14
ATOM     14  S   UNL     1       1.510   5.092   0.015  0.00  0.00    +0.000 S 
BRANCH  14  19
ATOM     15  N   UNL     1       1.072   2.328   0.004  0.00  0.00    +0.000 N 
ATOM     16  C   UNL     1      -0.018   1.503   0.010  0.00  0.00    +0.000 A 
ATOM     17  N   UNL     1      -1.078   2.261   0.019  0.00  0.00    +0.000 NA
ATOM     18  N   UNL     1      -0.735   3.499   0.028  0.00  0.00    +0.000 NA
ATOM     19  C   UNL     1       0.574   3.599   0.016  0.00  0.00    +0.000 A 
BRANCH  16  20
ATOM     20  C   UNL     1       0.002  -0.004   0.002  0.00  0.00    +0.000 C 
ATOM     21  C   UNL     1      -1.331  -0.728  -0.196  0.00  0.00    +0.000 C 
ATOM     22  C   UNL     1      -0.657  -0.726   1.179  0.00  0.00    +0.000 C 
ENDBRANCH  16  20
BRANCH  15  23
ATOM     23  C   UNL     1       2.482   1.931  -0.012  0.00  0.00    +0.000 C 
BRANCH  23  25
ATOM     24  C   UNL     1       4.000   2.474  -1.845  0.00  0.00    +0.000 C 
ATOM     25  C   UNL     1       2.952   1.803  -1.438  0.00  0.00    +0.000 C 
ENDBRANCH  23  25
ENDBRANCH  15  23
ENDBRANCH  14  19
ENDBRANCH   1  14
TORSDOF 6
ENDMDL
MODEL      232
REMARK  Name = ZINC12507212
REMARK  7 active torsions:
REMARK  status: ('A' for Active; 'I' for Inactive)
REMARK    1  A    between atoms: C_4  and  N_7
REMARK    2  A    between atoms: N_12  and  C_13
REMARK    3  A    between atoms: C_13  and  C_14
REMARK    4  A    between atoms: C_14  and  C_15
REMARK    5  A    between atoms: C_15  and  C_16
REMARK    6  A    between atoms: C_17  and  C_22
REMARK    7  A    between atoms: C_18  and  N_21
REMARK                            x       y       z     vdW  Elec       q    Type
REMARK                         _______ _______ _______ _____ _____    ______ ____
ROOT
ATOM      1  C   UNL     1       5.644   0.953  -1.491  0.00  0.00    +0.000 C 
ENDROOT
BRANCH   1   7
ATOM      2  N   UNL     1       8.055   1.073  -4.368  0.00  0.00    +0.000 N 
ATOM      3  C   UNL     1       7.474   1.045  -3.143  0.00  0.00    +0.000 A 
ATOM      4  N   UNL     1       8.444   1.082  -2.256  0.00  0.00    +0.000 NA
ATOM      5  N   UNL     1       9.586   1.137  -2.839  0.00  0.00    +0.000 NA
ATOM      6  N   UNL     1       9.437   1.139  -4.120  0.00  0.00    +0.000 NA
ATOM      7  N   UNL     1       6.118   0.982  -2.877  0.00  0.00    +0.000 N 
ATOM      8  H   UNL     1       5.441   0.957  -3.653  0.00  0.00    +0.000 HD
BRANCH   2  12
ATOM      9  C   UNL     1       6.149   0.988  -8.076  0.00  0.00    +0.000 A 
ATOM     10  C   UNL     1       7.305   1.730  -7.910  0.00  0.00    +0.000 A 
ATOM     11  C   UNL     1       7.938   1.760  -6.683  0.00  0.00    +0.000 A 
ATOM     12  C   UNL     1       7.414   1.044  -5.615  0.00  0.00    +0.000 A 
ATOM     13  C   UNL     1       6.257   0.296  -5.786  0.00  0.00    +0.000 A 
ATOM     14  C   UNL     1       5.625   0.275  -7.014  0.00  0.00    +0.000 A 
ENDBRANCH   2  12
ENDBRANCH   1   7
BRANCH   1  15
ATOM     15  C   UNL     1       4.115   0.884  -1.476  0.00  0.00    +0.000 C 
BRANCH  15  16
ATOM     16  C   UNL     1       3.621   0.853  -0.029  0.00  0.00    +0.000 C 
BRANCH  16  17
ATOM     17  C   UNL     1       2.115   0.786  -0.014  0.00  0.00    +0.000 A 
ATOM     18  C   UNL     1       1.338  -0.396  -0.013  0.00  0.00    +0.000 A 
ATOM     19  C   UNL     1       0.002  -0.004   0.002  0.00  0.00    +0.000 A 
ATOM     20  N   UNL     1      -0.016   1.345   0.009  0.00  0.00    +0.000 N 
ATOM     21  N   UNL     1       1.304   1.806  -0.001  0.00  0.00    +0.000 NA
ATOM     22  H   UNL     1      -0.860   1.936   0.021  0.00  0.00    +0.000 HD
BRANCH  19  23
ATOM     23  N   UNL     1      -1.098  -0.840   0.008  0.00  0.00    +0.000 N 
ATOM     24  H   UNL     1      -0.887  -1.848   0.001  0.00  0.00    +0.000 HD
ATOM     25  H   UNL     1      -2.069  -0.496   0.019  0.00  0.00    +0.000 HD
ENDBRANCH  19  23
BRANCH  18  26
ATOM     26  C   UNL     1       1.831  -1.740  -0.025  0.00  0.00    +0.000 C 
ATOM     27  N   UNL     1       2.223  -2.806  -0.035  0.00  0.00    +0.000 NA
ENDBRANCH  18  26
ENDBRANCH  16  17
ENDBRANCH  15  16
ENDBRANCH   1  15
TORSDOF 7
ENDMDL
MODEL      233
REMARK  Name = ZINC31246040
REMARK  8 active torsions:
REMARK  status: ('A' for Active; 'I' for Inactive)
REMARK    1  A    between atoms: C_1  and  N_2
REMARK    2  A    between atoms: C_6  and  C_8
REMARK    3  A    between atoms: C_8  and  C_9
REMARK    4  A    between atoms: C_9  and  N_10
REMARK    5  A    between atoms: N_10  and  C_11
REMARK    6  A    between atoms: N_10  and  C_12
REMARK    7  A    between atoms: C_12  and  C_13
REMARK    8  A    between atoms: N_15  and  C_16
REMARK                            x       y       z     vdW  Elec       q    Type
REMARK                         _______ _______ _______ _____ _____    ______ ____
ROOT
ATOM      1  N   UNL     1       3.419   2.299  -0.312  0.00  0.00    +0.000 NA
ATOM      2  C   UNL     1       3.335   2.791  -1.694  0.00  0.00    +0.000 C 
ENDROOT
BRANCH   1   3
ATOM      3  C   UNL     1       4.783   1.856   0.006  0.00  0.00    +0.000 C 
BRANCH   3   4
ATOM      4  C   UNL     1       5.727   3.060  -0.009  0.00  0.00    +0.000 C 
BRANCH   4  10
ATOM      5  C   UNL     1      11.750   3.550   1.015  0.00  0.00    +0.000 C 
ATOM      6  N   UNL     1      10.390   3.991   0.697  0.00  0.00    +0.000 N 
ATOM      7  C   UNL     1       9.384   3.095   0.653  0.00  0.00    +0.000 C 
ATOM      8  O   UNL     1       9.605   1.922   0.878  0.00  0.00    +0.000 OA
ATOM      9  N   UNL     1       8.133   3.502   0.361  0.00  0.00    +0.000 N 
ATOM     10  C   UNL     1       7.126   2.606   0.317  0.00  0.00    +0.000 C 
ATOM     11  O   UNL     1       7.347   1.435   0.541  0.00  0.00    +0.000 OA
ATOM     12  H   UNL     1      10.203   4.986   0.507  0.00  0.00    +0.000 HD
ATOM     13  H   UNL     1       7.945   4.497   0.171  0.00  0.00    +0.000 HD
ENDBRANCH   4  10
ENDBRANCH   3   4
ENDBRANCH   1   3
BRANCH   1  14
ATOM     14  C   UNL     1       2.448   1.222  -0.076  0.00  0.00    +0.000 C 
BRANCH  14  15
ATOM     15  C   UNL     1       1.050   1.777  -0.174  0.00  0.00    +0.000 C 
ATOM     16  O   UNL     1       0.880   2.953  -0.417  0.00  0.00    +0.000 OA
ATOM     17  N   UNL     1      -0.011   0.966   0.007  0.00  0.00    +0.000 N 
ATOM     18  H   UNL     1       0.130  -0.046   0.136  0.00  0.00    +0.000 HD
BRANCH  17  19
ATOM     19  C   UNL     1      -1.306   1.499   0.022  0.00  0.00    +0.000 A 
ATOM     20  C   UNL     1      -1.528   2.770   0.536  0.00  0.00    +0.000 A 
ATOM     21  C   UNL     1      -2.805   3.296   0.545  0.00  0.00    +0.000 A 
ATOM     22  C   UNL     1      -3.865   2.553   0.052  0.00  0.00    +0.000 A 
ATOM     23  C   UNL     1      -3.646   1.284  -0.456  0.00  0.00    +0.000 A 
ATOM     24  C   UNL     1      -2.369   0.756  -0.472  0.00  0.00    +0.000 A 
ATOM     25  F   UNL     1      -5.114   3.068   0.066  0.00  0.00    +0.000 F 
ENDBRANCH  17  19
ENDBRANCH  14  15
ENDBRANCH   1  14
TORSDOF 6
ENDMDL
MODEL      234
REMARK  Name = ZINC23104871
REMARK  8 active torsions:
REMARK  status: ('A' for Active; 'I' for Inactive)
REMARK    1  A    between atoms: C_1  and  C_2
REMARK    2  A    between atoms: C_5  and  C_7
REMARK    3  A    between atoms: C_7  and  C_8
REMARK    4  A    between atoms: C_7  and  C_10
REMARK    5  A    between atoms: C_10  and  C_12
REMARK    6  A    between atoms: C_12  and  O_13
REMARK    7  A    between atoms: O_13  and  C_14
REMARK    8  A    between atoms: C_17  and  C_20
REMARK                            x       y       z     vdW  Elec       q    Type
REMARK                         _______ _______ _______ _____ _____    ______ ____
ROOT
ATOM      1  C   UNL     1      -4.849   5.375   0.055  0.00  0.00    +0.000 C 
ENDROOT
BRANCH   1   2
ATOM      2  C   UNL     1      -6.250   5.932   0.065  0.00  0.00    +0.000 C 
ATOM      3  O   UNL     1      -7.197   5.184   0.065  0.00  0.00    +0.000 OA
BRANCH   2   4
ATOM      4  C   UNL     1      -6.468   7.423   0.074  0.00  0.00    +0.000 C 
BRANCH   4   9
ATOM      5  C   UNL     1      -9.341   9.491   3.608  0.00  0.00    +0.000 C 
ATOM      6  C   UNL     1      -9.143   8.649   2.374  0.00  0.00    +0.000 A 
ATOM      7  C   UNL     1     -10.198   8.058   1.760  0.00  0.00    +0.000 A 
ATOM      8  S   UNL     1      -9.370   7.229   0.411  0.00  0.00    +0.000 S 
ATOM      9  C   UNL     1      -7.754   7.739   0.792  0.00  0.00    +0.000 A 
ATOM     10  N   UNL     1      -7.941   8.465   1.870  0.00  0.00    +0.000 NA
ENDBRANCH   4   9
BRANCH   4  11
ATOM     11  C   UNL     1      -6.545   7.916  -1.311  0.00  0.00    +0.000 C 
ATOM     12  N   UNL     1      -6.605   8.297  -2.380  0.00  0.00    +0.000 NA
ENDBRANCH   4  11
ENDBRANCH   2   4
ENDBRANCH   1   2
BRANCH   1  13
ATOM     13  O   UNL     1      -4.905   3.947   0.047  0.00  0.00    +0.000 OA
BRANCH  13  14
ATOM     14  C   UNL     1      -3.721   3.285   0.038  0.00  0.00    +0.000 A 
ATOM     15  C   UNL     1      -3.704   1.895   0.030  0.00  0.00    +0.000 A 
ATOM     16  C   UNL     1      -2.504   1.219   0.021  0.00  0.00    +0.000 A 
ATOM     17  C   UNL     1      -1.303   1.932   0.019  0.00  0.00    +0.000 A 
ATOM     18  C   UNL     1      -1.324   3.329   0.032  0.00  0.00    +0.000 A 
ATOM     19  C   UNL     1      -2.527   3.998   0.036  0.00  0.00    +0.000 A 
BRANCH  17  20
ATOM     20  C   UNL     1      -0.014   1.212   0.009  0.00  0.00    +0.000 C 
ATOM     21  O   UNL     1       0.002  -0.004   0.002  0.00  0.00    +0.000 OA
ATOM     22  N   UNL     1       1.143   1.901   0.001  0.00  0.00    +0.000 N 
ATOM     23  H   UNL     1       1.129   2.931   0.003  0.00  0.00    +0.000 HD
ATOM     24  H   UNL     1       2.042   1.399  -0.006  0.00  0.00    +0.000 HD
ENDBRANCH  17  20
ENDBRANCH  13  14
ENDBRANCH   1  13
TORSDOF 7
ENDMDL
MODEL      235
REMARK  Name = ZINC05665859
REMARK  9 active torsions:
REMARK  status: ('A' for Active; 'I' for Inactive)
REMARK    1  A    between atoms: C_1  and  C_2
REMARK    2  A    between atoms: C_3  and  C_4
REMARK    3  A    between atoms: C_3  and  N_23
REMARK    4  A    between atoms: N_10  and  C_13
REMARK    5  A    between atoms: C_19  and  C_20
REMARK    6  A    between atoms: C_19  and  N_23
REMARK    7  A    between atoms: C_20  and  N_24
REMARK    8  A    between atoms: C_21  and  N_24
REMARK    9  A    between atoms: C_22  and  N_24
REMARK                            x       y       z     vdW  Elec       q    Type
REMARK                         _______ _______ _______ _____ _____    ______ ____
ROOT
ATOM      1  C   UNL     1       0.002  -0.004   0.002  0.00  0.00    +0.000 A 
ATOM      2  C   UNL     1       1.372  -0.656  -0.015  0.00  0.00    +0.000 A 
ATOM      3  O   UNL     1       1.494  -1.862  -0.023  0.00  0.00    +0.000 OA
ATOM      4  N   UNL     1       2.450   0.157  -0.021  0.00  0.00    +0.000 N 
ATOM      5  C   UNL     1       2.332   1.490  -0.012  0.00  0.00    +0.000 A 
ATOM      6  O   UNL     1       3.354   2.145  -0.018  0.00  0.00    +0.000 OA
ATOM      7  N   UNL     1       1.170   2.153   0.003  0.00  0.00    +0.000 N 
ATOM      8  C   UNL     1      -0.018   1.513   0.010  0.00  0.00    +0.000 A 
ATOM      9  O   UNL     1      -1.063   2.127   0.019  0.00  0.00    +0.000 OA
ATOM     10  H   UNL     1       3.391  -0.261  -0.032  0.00  0.00    +0.000 HD
ENDROOT
BRANCH   7  11
ATOM     11  C   UNL     1       1.188   3.618   0.010  0.00  0.00    +0.000 C 
ATOM     12  C   UNL     1       1.904   4.125  -1.244  0.00  0.00    +0.000 C 
ATOM     13  C   UNL     1       1.923   5.655  -1.236  0.00  0.00    +0.000 C 
ATOM     14  C   UNL     1       2.662   6.150   0.009  0.00  0.00    +0.000 C 
ATOM     15  C   UNL     1       1.946   5.643   1.262  0.00  0.00    +0.000 C 
ATOM     16  C   UNL     1       1.927   4.113   1.254  0.00  0.00    +0.000 C 
ENDBRANCH   7  11
BRANCH   1  19
ATOM     17  C   UNL     1      -2.289  -1.637  -0.274  0.00  0.00    +0.000 C 
ATOM     18  C   UNL     1      -1.799  -1.252   1.098  0.00  0.00    +0.000 C 
ATOM     19  C   UNL     1      -0.729  -0.490   1.227  0.00  0.00    +0.000 C 
BRANCH  19  20
ATOM     20  N   UNL     1      -0.217  -0.092   2.498  0.00  0.00    +0.000 NA
ATOM     21  H   UNL     1       0.758  -0.414   2.574  0.00  0.00    +0.000 HD
ATOM     22  H   UNL     1      -0.200   0.937   2.538  0.00  0.00    +0.000 HD
BRANCH  20  23
ATOM     23  C   UNL     1      -0.988  -0.607   3.683  0.00  0.00    +0.000 C 
BRANCH  23  24
ATOM     24  C   UNL     1      -0.289  -0.078   4.937  0.00  0.00    +0.000 C 
BRANCH  24  27
ATOM     25  C   UNL     1      -0.898  -2.010   6.262  0.00  0.00    +0.000 C 
ATOM     26  C   UNL     1      -0.510   0.123   7.340  0.00  0.00    +0.000 C 
ATOM     27  N   UNL     1      -1.030  -0.544   6.128  0.00  0.00    +0.000 NA
ENDBRANCH  24  27
ENDBRANCH  23  24
ENDBRANCH  20  23
ENDBRANCH  19  20
ENDBRANCH   1  19
TORSDOF 6
ENDMDL
MODEL      236
REMARK  Name = ZINC20528122
REMARK  6 active torsions:
REMARK  status: ('A' for Active; 'I' for Inactive)
REMARK    1  A    between atoms: C_5  and  C_7
REMARK    2  A    between atoms: N_8  and  N_9
REMARK    3  A    between atoms: C_13  and  S_16
REMARK    4  A    between atoms: N_14  and  N_15
REMARK    5  A    between atoms: S_16  and  C_17
REMARK    6  A    between atoms: C_17  and  C_18
REMARK                            x       y       z     vdW  Elec       q    Type
REMARK                         _______ _______ _______ _____ _____    ______ ____
ROOT
ATOM      1  N   UNL     1      -3.753   5.855   0.068  0.00  0.00    +0.000 N 
ATOM      2  C   UNL     1      -3.767   7.242   0.075  0.00  0.00    +0.000 A 
ATOM      3  N   UNL     1      -2.714   8.023   0.075  0.00  0.00    +0.000 NA
ATOM      4  N   UNL     1      -3.160   9.351   0.080  0.00  0.00    +0.000 NA
ATOM      5  C   UNL     1      -4.472   9.338   0.092  0.00  0.00    +0.000 A 
ATOM      6  N   UNL     1      -4.881   8.034   0.090  0.00  0.00    +0.000 N 
ATOM      7  H   UNL     1      -4.639   5.331   0.074  0.00  0.00    +0.000 HD
ENDROOT
BRANCH   6   8
ATOM      8  N   UNL     1      -6.175   7.599   0.100  0.00  0.00    +0.000 N 
ATOM      9  H   UNL     1      -6.303   6.577   0.096  0.00  0.00    +0.000 HD
ATOM     10  H   UNL     1      -6.983   8.239   0.110  0.00  0.00    +0.000 HD
ENDBRANCH   6   8
BRANCH   1  12
ATOM     11  C   UNL     1      -2.519   3.868   0.046  0.00  0.00    +0.000 C 
ATOM     12  N   UNL     1      -2.532   5.166   0.053  0.00  0.00    +0.000 NA
BRANCH  11  17
ATOM     13  C   UNL     1      -0.013   1.076   0.008  0.00  0.00    +0.000 A 
ATOM     14  C   UNL     1       1.178   1.782   0.000  0.00  0.00    +0.000 A 
ATOM     15  C   UNL     1       1.170   3.165   0.008  0.00  0.00    +0.000 A 
ATOM     16  C   UNL     1      -0.029   3.852   0.023  0.00  0.00    +0.000 A 
ATOM     17  C   UNL     1      -1.236   3.144   0.031  0.00  0.00    +0.000 A 
ATOM     18  C   UNL     1      -1.217   1.747   0.017  0.00  0.00    +0.000 A 
ATOM     19  F   UNL     1      -0.036   5.203   0.030  0.00  0.00    +0.000 F 
ENDBRANCH  11  17
ENDBRANCH   1  12
BRANCH   5  20
ATOM     20  S   UNL     1      -5.522  10.753   0.110  0.00  0.00    +0.000 S 
BRANCH  20  21
ATOM     21  C   UNL     1      -4.370  12.154   0.106  0.00  0.00    +0.000 C 
BRANCH  21  22
ATOM     22  C   UNL     1      -5.149  13.444   0.120  0.00  0.00    +0.000 C 
ATOM     23  O   UNL     1      -6.361  13.421   0.132  0.00  0.00    +0.000 OA
ATOM     24  N   UNL     1      -4.497  14.624   0.120  0.00  0.00    +0.000 N 
ATOM     25  H   UNL     1      -3.468  14.644   0.110  0.00  0.00    +0.000 HD
ATOM     26  H   UNL     1      -5.030  15.506   0.130  0.00  0.00    +0.000 HD
ENDBRANCH  21  22
ENDBRANCH  20  21
ENDBRANCH   5  20
TORSDOF 6
ENDMDL
MODEL      237
REMARK  Name = ZINC06191605
REMARK  7 active torsions:
REMARK  status: ('A' for Active; 'I' for Inactive)
REMARK    1  A    between atoms: C_1  and  C_2
REMARK    2  A    between atoms: C_3  and  C_4
REMARK    3  A    between atoms: C_4  and  N_5
REMARK    4  A    between atoms: N_10  and  C_11
REMARK    5  A    between atoms: C_11  and  C_12
REMARK    6  A    between atoms: C_12  and  O_13
REMARK    7  A    between atoms: N_14  and  C_20
REMARK                            x       y       z     vdW  Elec       q    Type
REMARK                         _______ _______ _______ _____ _____    ______ ____
ROOT
ATOM      1  N   UNL     1       1.304  -0.395  -0.013  0.00  0.00    +0.000 N 
ATOM      2  C   UNL     1       0.002  -0.004   0.002  0.00  0.00    +0.000 A 
ATOM      3  C   UNL     1      -0.017   1.383   0.010  0.00  0.00    +0.000 A 
ATOM      4  N   UNL     1       1.285   1.790  -0.001  0.00  0.00    +0.000 NA
ATOM      5  C   UNL     1       2.068   0.668  -0.014  0.00  0.00    +0.000 A 
ATOM      6  N   UNL     1       3.452   0.658  -0.028  0.00  0.00    +0.000 N 
ATOM      7  N   UNL     1      -1.228   2.038   0.030  0.00  0.00    +0.000 N 
ATOM      8  C   UNL     1      -2.383   1.350   0.033  0.00  0.00    +0.000 A 
ATOM      9  O   UNL     1      -3.432   1.963   0.047  0.00  0.00    +0.000 OA
ATOM     10  N   UNL     1      -2.416   0.007   0.026  0.00  0.00    +0.000 N 
ATOM     11  C   UNL     1      -1.275  -0.716   0.011  0.00  0.00    +0.000 A 
ATOM     12  O   UNL     1      -1.310  -1.933   0.004  0.00  0.00    +0.000 OA
ATOM     13  C   UNL     1      -1.258   3.503   0.038  0.00  0.00    +0.000 C 
ATOM     14  H   UNL     1       3.961  -0.237  -0.038  0.00  0.00    +0.000 HD
ATOM     15  H   UNL     1      -3.325  -0.479   0.032  0.00  0.00    +0.000 HD
ENDROOT
BRANCH   1  16
ATOM     16  C   UNL     1       1.775  -1.782  -0.025  0.00  0.00    +0.000 C 
BRANCH  16  19
ATOM     17  C   UNL     1       3.217  -3.203  -3.290  0.00  0.00    +0.000 C 
ATOM     18  C   UNL     1       3.069  -2.736  -1.865  0.00  0.00    +0.000 C 
ATOM     19  C   UNL     1       1.924  -2.249  -1.450  0.00  0.00    +0.000 C 
ATOM     20 CL   UNL     1       4.414  -2.842  -0.772  0.00  0.00    +0.000 Cl
ENDBRANCH  16  19
ENDBRANCH   1  16
BRANCH   6  21
ATOM     21  C   UNL     1       4.193   1.922  -0.028  0.00  0.00    +0.000 C 
BRANCH  21  22
ATOM     22  C   UNL     1       5.695   1.632  -0.044  0.00  0.00    +0.000 C 
BRANCH  22  23
ATOM     23  O   UNL     1       6.043   0.989  -1.273  0.00  0.00    +0.000 OA
ATOM     24  H   UNL     1       5.814   1.581  -2.032  0.00  0.00    +0.000 HD
ENDBRANCH  22  23
ENDBRANCH  21  22
ENDBRANCH   6  21
TORSDOF 5
ENDMDL
MODEL      238
REMARK  Name = ZINC00219854
REMARK  8 active torsions:
REMARK  status: ('A' for Active; 'I' for Inactive)
REMARK    1  A    between atoms: C_1  and  C_2
REMARK    2  A    between atoms: C_2  and  O_3
REMARK    3  A    between atoms: O_3  and  C_4
REMARK    4  A    between atoms: C_6  and  C_11
REMARK    5  A    between atoms: C_9  and  O_10
REMARK    6  A    between atoms: N_12  and  N_13
REMARK    7  A    between atoms: C_14  and  C_16
REMARK    8  A    between atoms: C_16  and  N_22
REMARK                            x       y       z     vdW  Elec       q    Type
REMARK                         _______ _______ _______ _____ _____    ______ ____
ROOT
ATOM      1  C   UNL     1      -0.202  -4.964   0.453  0.00  0.00    +0.000 C 
ATOM      2  N   UNL     1      -0.098  -6.248   0.293  0.00  0.00    +0.000 NA
ENDROOT
BRANCH   1   5
ATOM      3  C   UNL     1       0.777  -1.811  -1.336  0.00  0.00    +0.000 A 
ATOM      4  C   UNL     1       0.249  -2.665  -0.386  0.00  0.00    +0.000 A 
ATOM      5  C   UNL     1       0.359  -4.048  -0.557  0.00  0.00    +0.000 A 
ATOM      6  C   UNL     1       1.002  -4.560  -1.687  0.00  0.00    +0.000 A 
ATOM      7  C   UNL     1       1.526  -3.701  -2.630  0.00  0.00    +0.000 A 
ATOM      8  C   UNL     1       1.412  -2.329  -2.463  0.00  0.00    +0.000 A 
BRANCH   8   9
ATOM      9  O   UNL     1       1.925  -1.487  -3.399  0.00  0.00    +0.000 OA
ATOM     10  H   UNL     1       2.553  -0.904  -2.902  0.00  0.00    +0.000 HD
ENDBRANCH   8   9
BRANCH   3  11
ATOM     11  O   UNL     1       0.671  -0.465  -1.174  0.00  0.00    +0.000 OA
BRANCH  11  13
ATOM     12  C   UNL     1      -0.019   1.526   0.010  0.00  0.00    +0.000 C 
ATOM     13  C   UNL     1       0.002  -0.004   0.002  0.00  0.00    +0.000 C 
ENDBRANCH  11  13
ENDBRANCH   3  11
ENDBRANCH   1   5
BRANCH   2  14
ATOM     14  N   UNL     1      -0.632  -7.118   1.252  0.00  0.00    +0.000 N 
ATOM     15  C   UNL     1      -0.524  -8.452   1.086  0.00  0.00    +0.000 C 
ATOM     16  O   UNL     1       0.034  -8.898   0.106  0.00  0.00    +0.000 OA
ATOM     17  H   UNL     1      -1.106  -6.740   2.084  0.00  0.00    +0.000 HD
BRANCH  15  18
ATOM     18  C   UNL     1      -1.098  -9.388   2.118  0.00  0.00    +0.000 C 
BRANCH  18  24
ATOM     19  C   UNL     1      -1.605 -11.108   0.489  0.00  0.00    +0.000 C 
ATOM     20  C   UNL     1      -1.275 -12.542   0.066  0.00  0.00    +0.000 C 
ATOM     21  O   UNL     1      -1.573 -13.433   1.144  0.00  0.00    +0.000 OA
ATOM     22  C   UNL     1      -0.857 -13.140   2.347  0.00  0.00    +0.000 C 
ATOM     23  C   UNL     1      -1.183 -11.713   2.794  0.00  0.00    +0.000 C 
ATOM     24  N   UNL     1      -0.827 -10.781   1.703  0.00  0.00    +0.000 NA
ENDBRANCH  18  24
ENDBRANCH  15  18
ENDBRANCH   2  14
TORSDOF 7
ENDMDL
MODEL      239
REMARK  Name = ZINC29496846
REMARK  9 active torsions:
REMARK  status: ('A' for Active; 'I' for Inactive)
REMARK    1  A    between atoms: C_1  and  C_2
REMARK    2  A    between atoms: C_2  and  C_3
REMARK    3  A    between atoms: C_3  and  C_4
REMARK    4  A    between atoms: C_3  and  N_5
REMARK    5  A    between atoms: N_5  and  C_6
REMARK    6  A    between atoms: C_13  and  C_15
REMARK    7  A    between atoms: C_15  and  S_16
REMARK    8  A    between atoms: S_16  and  C_17
REMARK    9  A    between atoms: N_18  and  C_19
REMARK                            x       y       z     vdW  Elec       q    Type
REMARK                         _______ _______ _______ _____ _____    ______ ____
ROOT
ATOM      1  N   UNL     1       1.143   1.898   0.001  0.00  0.00    +0.000 N 
ATOM      2  C   UNL     1      -0.014   1.209   0.009  0.00  0.00    +0.000 C 
ATOM      3  O   UNL     1       0.002  -0.004   0.002  0.00  0.00    +0.000 OA
ENDROOT
BRANCH   1   4
ATOM      4  C   UNL     1       2.422   1.183  -0.015  0.00  0.00    +0.000 C 
ATOM      5  C   UNL     1       2.530   0.303   1.242  0.00  0.00    +0.000 C 
ATOM      6  C   UNL     1       3.730  -0.669   1.050  0.00  0.00    +0.000 C 
ATOM      7  S   UNL     1       3.511  -1.128  -0.721  0.00  0.00    +0.000 S 
ATOM      8  O   UNL     1       2.724  -2.309  -0.799  0.00  0.00    +0.000 OA
ATOM      9  O   UNL     1       4.776  -1.086  -1.369  0.00  0.00    +0.000 OA
ATOM     10  C   UNL     1       2.502   0.302  -1.285  0.00  0.00    +0.000 C 
ENDBRANCH   1   4
BRANCH   1  11
ATOM     11  C   UNL     1       1.124   3.363   0.009  0.00  0.00    +0.000 C 
ATOM     12  C   UNL     1       1.826   3.890  -1.244  0.00  0.00    +0.000 C 
BRANCH  11  14
ATOM     13  C   UNL     1       1.077   3.454   2.506  0.00  0.00    +0.000 C 
ATOM     14  C   UNL     1       1.850   3.876   1.254  0.00  0.00    +0.000 C 
ENDBRANCH  11  14
ENDBRANCH   1  11
BRANCH   2  15
ATOM     15  C   UNL     1      -1.330   1.944   0.019  0.00  0.00    +0.000 C 
BRANCH  15  16
ATOM     16  S   UNL     1      -2.689   0.750   0.019  0.00  0.00    +0.000 S 
BRANCH  16  17
ATOM     17  C   UNL     1      -4.064   1.851   0.031  0.00  0.00    +0.000 C 
ATOM     18  N   UNL     1      -3.867   3.140   0.037  0.00  0.00    +0.000 N 
ATOM     19  C   UNL     1      -5.011   4.056   0.048  0.00  0.00    +0.000 C 
ATOM     20  N   UNL     1      -5.346   1.351   0.035  0.00  0.00    +0.000 N 
ATOM     21  H   UNL     1      -2.908   3.515   0.035  0.00  0.00    +0.000 HD
ATOM     22  H   UNL     1      -5.502   0.333   0.030  0.00  0.00    +0.000 HD
ATOM     23  H   UNL     1      -6.150   1.995   0.042  0.00  0.00    +0.000 HD
ENDBRANCH  16  17
ENDBRANCH  15  16
ENDBRANCH   2  15
TORSDOF 6
ENDMDL
MODEL      240
REMARK  Name = ZINC31792221
REMARK  7 active torsions:
REMARK  status: ('A' for Active; 'I' for Inactive)
REMARK    1  A    between atoms: C_1  and  C_2
REMARK    2  A    between atoms: C_3  and  C_17
REMARK    3  A    between atoms: C_5  and  S_7
REMARK    4  A    between atoms: S_7  and  C_8
REMARK    5  A    between atoms: C_8  and  C_9
REMARK    6  A    between atoms: C_9  and  N_10
REMARK    7  A    between atoms: C_17  and  C_18
REMARK                            x       y       z     vdW  Elec       q    Type
REMARK                         _______ _______ _______ _____ _____    ______ ____
ROOT
ATOM      1  C   UNL     1      -0.891  -2.615   2.459  0.00  0.00    +0.000 C 
ATOM      2  C   UNL     1      -0.812  -3.105   1.036  0.00  0.00    +0.000 A 
ATOM      3  C   UNL     1      -0.997  -2.253  -0.001  0.00  0.00    +0.000 A 
ATOM      4  S   UNL     1      -0.786  -3.363  -1.385  0.00  0.00    +0.000 S 
ATOM      5  C   UNL     1      -0.489  -4.810  -0.471  0.00  0.00    +0.000 A 
ATOM      6  N   UNL     1      -0.566  -4.374   0.772  0.00  0.00    +0.000 NA
ENDROOT
BRANCH   5   7
ATOM      7  S   UNL     1      -0.166  -6.441  -1.055  0.00  0.00    +0.000 S 
BRANCH   7   8
ATOM      8  C   UNL     1       0.021  -7.308   0.523  0.00  0.00    +0.000 C 
BRANCH   8   9
ATOM      9  C   UNL     1       0.316  -8.786   0.260  0.00  0.00    +0.000 C 
BRANCH   9  10
ATOM     10  N   UNL     1       0.467  -9.488   1.537  0.00  0.00    +0.000 N 
ATOM     11  C   UNL     1      -0.548 -10.070   2.206  0.00  0.00    +0.000 C 
ATOM     12  O   UNL     1      -1.714 -10.109   1.877  0.00  0.00    +0.000 OA
ATOM     13  C   UNL     1       0.071 -10.665   3.455  0.00  0.00    +0.000 C 
ATOM     14  N   UNL     1       1.498 -10.316   3.334  0.00  0.00    +0.000 NA
ATOM     15  C   UNL     1       1.630  -9.635   2.181  0.00  0.00    +0.000 C 
ATOM     16  O   UNL     1       2.689  -9.199   1.772  0.00  0.00    +0.000 OA
ENDBRANCH   9  10
ENDBRANCH   8   9
ENDBRANCH   7   8
ENDBRANCH   5   7
BRANCH   3  17
ATOM     17  C   UNL     1      -1.293  -0.775   0.010  0.00  0.00    +0.000 C 
BRANCH  17  18
ATOM     18  C   UNL     1       0.002  -0.004   0.002  0.00  0.00    +0.000 C 
ATOM     19  O   UNL     1       1.060  -0.596  -0.011  0.00  0.00    +0.000 OA
ATOM     20  N   UNL     1      -0.016   1.344   0.009  0.00  0.00    +0.000 N 
ATOM     21  H   UNL     1      -0.915   1.846   0.021  0.00  0.00    +0.000 HD
ATOM     22  H   UNL     1       0.869   1.871   0.004  0.00  0.00    +0.000 HD
ENDBRANCH  17  18
ENDBRANCH   3  17
TORSDOF 6
ENDMDL
MODEL      241
REMARK  Name = ZINC04939783
REMARK  14 active torsions:
REMARK  status: ('A' for Active; 'I' for Inactive)
REMARK    1  A    between atoms: C_1  and  C_2
REMARK    2  A    between atoms: C_2  and  O_3
REMARK    3  A    between atoms: O_3  and  C_4
REMARK    4  A    between atoms: C_4  and  C_6
REMARK    5  A    between atoms: C_10  and  N_11
REMARK    6  A    between atoms: C_12  and  C_14
REMARK    7  A    between atoms: C_14  and  C_15
REMARK    8  A    between atoms: C_15  and  C_16
REMARK    9  A    between atoms: C_15  and  N_28
REMARK   10  A    between atoms: C_18  and  C_19
REMARK   11  A    between atoms: C_18  and  N_28
REMARK   12  A    between atoms: C_19  and  C_20
REMARK   13  A    between atoms: C_20  and  O_21
REMARK   14  A    between atoms: O_21  and  C_22
REMARK                            x       y       z     vdW  Elec       q    Type
REMARK                         _______ _______ _______ _____ _____    ______ ____
ROOT
ATOM      1  N   UNK A   1      -0.888  -1.724  -5.404  0.00  0.00    +0.000 N 
ATOM      2  C   UNK A   1      -1.034  -0.719  -4.518  0.00  0.00    +0.000 C 
ATOM      3  O   UNK A   1      -1.641  -0.905  -3.485  0.00  0.00    +0.000 OA
ATOM      4  H   UNK A   1      -0.373  -1.566  -6.282  0.00  0.00    +0.000 HD
ENDROOT
BRANCH   1   9
ATOM      5  C   UNK A   1      -1.393  -4.116  -5.918  0.00  0.00    +0.000 A 
ATOM      6  C   UNK A   1      -2.045  -5.307  -5.398  0.00  0.00    +0.000 A 
ATOM      7  C   UNK A   1      -2.636  -5.159  -4.192  0.00  0.00    +0.000 A 
ATOM      8  S   UNK A   1      -2.332  -3.474  -3.743  0.00  0.00    +0.000 S 
ATOM      9  C   UNK A   1      -1.432  -2.970  -5.135  0.00  0.00    +0.000 A 
ATOM     10  C   UNK A   1      -3.382  -6.201  -3.419  0.00  0.00    +0.000 C 
ATOM     11  C   UNK A   1      -3.703  -7.368  -4.364  0.00  0.00    +0.000 C 
ATOM     12  C   UNK A   1      -2.432  -7.744  -5.132  0.00  0.00    +0.000 C 
ATOM     13  C   UNK A   1      -2.084  -6.641  -6.133  0.00  0.00    +0.000 C 
BRANCH   5  14
ATOM     14  C   UNK A   1      -0.718  -4.126  -7.218  0.00  0.00    +0.000 C 
ATOM     15  O   UNK A   1       0.460  -4.420  -7.288  0.00  0.00    +0.000 OA
BRANCH  14  16
ATOM     16  O   UNK A   1      -1.403  -3.808  -8.336  0.00  0.00    +0.000 OA
BRANCH  16  18
ATOM     17  C   UNK A   1      -1.604  -3.453 -10.736  0.00  0.00    +0.000 C 
ATOM     18  C   UNK A   1      -0.669  -3.839  -9.588  0.00  0.00    +0.000 C 
ENDBRANCH  16  18
ENDBRANCH  14  16
ENDBRANCH   5  14
ENDBRANCH   1   9
BRANCH   2  19
ATOM     19  C   UNK A   1      -0.443   0.636  -4.811  0.00  0.00    +0.000 C 
BRANCH  19  20
ATOM     20  C   UNK A   1      -0.749   1.587  -3.653  0.00  0.00    +0.000 C 
BRANCH  20  21
ATOM     21  N   UNK A   1      -0.056   1.113  -2.440  0.00  0.00    +0.000 N 
ATOM     22  H   UNK A   1      -0.040   0.083  -2.437  0.00  0.00    +0.000 HD
ATOM     23  H   UNK A   1       0.911   1.466  -2.438  0.00  0.00    +0.000 HD
BRANCH  21  24
ATOM     24  C   UNK A   0      -0.753   1.593  -1.232  0.00  0.00    +0.000 C 
BRANCH  24  25
ATOM     25  C   UNK A   0      -0.013   1.086   0.008  0.00  0.00    +0.000 C 
BRANCH  25  26
ATOM     26  C   UNK A   0      -0.729   1.579   1.267  0.00  0.00    +0.000 C 
BRANCH  26  27
ATOM     27  O   UNK A   0      -0.038   1.106   2.425  0.00  0.00    +0.000 OA
ATOM     28  C   UNK A   0      -0.628   1.513   3.661  0.00  0.00    +0.000 C 
ENDBRANCH  26  27
ENDBRANCH  25  26
ENDBRANCH  24  25
ENDBRANCH  21  24
ENDBRANCH  20  21
BRANCH  20  29
ATOM     29  C   UNK A   1      -0.266   2.972  -3.999  0.00  0.00    +0.000 C 
ATOM     30  O   UNK A   1       0.563   3.513  -3.307  0.00  0.00    +0.000 OA
ATOM     31  O   UNK A   1      -0.757   3.604  -5.077  0.00  0.00    +0.000 OA
ENDBRANCH  20  29
ENDBRANCH  19  20
ENDBRANCH   2  19
TORSDOF 12
ENDMDL
MODEL      242
REMARK  Name = ZINC06621026
REMARK  16 active torsions:
REMARK  status: ('A' for Active; 'I' for Inactive)
REMARK    1  A    between atoms: C_1  and  C_2
REMARK    2  A    between atoms: C_2  and  O_3
REMARK    3  A    between atoms: O_3  and  C_4
REMARK    4  A    between atoms: C_4  and  C_6
REMARK    5  A    between atoms: C_6  and  C_7
REMARK    6  A    between atoms: C_7  and  C_8
REMARK    7  A    between atoms: N_10  and  C_11
REMARK    8  A    between atoms: N_10  and  C_17
REMARK    9  A    between atoms: C_11  and  C_12
REMARK   10  A    between atoms: C_12  and  C_13
REMARK   11  A    between atoms: C_13  and  C_14
REMARK   12  A    between atoms: C_14  and  C_15
REMARK   13  A    between atoms: C_15  and  C_16
REMARK   14  A    between atoms: C_16  and  N_30
REMARK   15  A    between atoms: C_17  and  C_18
REMARK   16  A    between atoms: C_17  and  C_19
REMARK                            x       y       z     vdW  Elec       q    Type
REMARK                         _______ _______ _______ _____ _____    ______ ____
ROOT
ATOM      1  C   UNL     1      -5.410   1.657  -1.623  0.00  0.00    +0.000 C 
ATOM      2  O   UNL     1      -6.281   0.962  -2.101  0.00  0.00    +0.000 OA
ATOM      3  N   UNL     1      -4.741   1.242  -0.529  0.00  0.00    +0.000 N 
ENDROOT
BRANCH   3   4
ATOM      4  C   UNL     1      -3.689   2.082   0.049  0.00  0.00    +0.000 C 
ATOM      5  C   UNL     1      -4.055   2.437   1.492  0.00  0.00    +0.000 C 
BRANCH   4   6
ATOM      6  C   UNL     1      -2.382   1.332   0.033  0.00  0.00    +0.000 A 
ATOM      7  N   UNL     1      -1.240   2.042   0.031  0.00  0.00    +0.000 N 
ATOM      8  C   UNL     1      -0.017   1.403   0.010  0.00  0.00    +0.000 A 
ATOM      9  C   UNL     1       1.180   2.106   0.002  0.00  0.00    +0.000 A 
ATOM     10  C   UNL     1       2.375   1.418  -0.013  0.00  0.00    +0.000 A 
ATOM     11  C   UNL     1       2.395   0.030  -0.021  0.00  0.00    +0.000 A 
ATOM     12  C   UNL     1       1.217  -0.685  -0.013  0.00  0.00    +0.000 A 
ATOM     13  C   UNL     1       0.002  -0.004   0.002  0.00  0.00    +0.000 A 
ATOM     14  C   UNL     1      -1.291  -0.711   0.011  0.00  0.00    +0.000 A 
ATOM     15  O   UNL     1      -1.341  -1.929   0.005  0.00  0.00    +0.000 OA
ATOM     16  N   UNL     1      -2.417   0.029   0.026  0.00  0.00    +0.000 NA
ATOM     17  H   UNL     1      -1.279   3.072   0.044  0.00  0.00    +0.000 HD
ENDBRANCH   4   6
ENDBRANCH   3   4
BRANCH   3  18
ATOM     18  C   UNL     1      -5.066  -0.050   0.082  0.00  0.00    +0.000 C 
BRANCH  18  19
ATOM     19  C   UNL     1      -6.156   0.145   1.137  0.00  0.00    +0.000 C 
BRANCH  19  20
ATOM     20  C   UNL     1      -6.495  -1.204   1.775  0.00  0.00    +0.000 C 
BRANCH  20  21
ATOM     21  C   UNL     1      -7.586  -1.009   2.830  0.00  0.00    +0.000 C 
BRANCH  21  22
ATOM     22  C   UNL     1      -7.925  -2.358   3.468  0.00  0.00    +0.000 C 
BRANCH  22  23
ATOM     23  C   UNL     1      -9.016  -2.163   4.523  0.00  0.00    +0.000 C 
BRANCH  23  24
ATOM     24  N   UNL     1      -9.319  -3.464   5.146  0.00  0.00    +0.000 N 
ATOM     25  H   UNL     1      -8.472  -3.840   5.595  0.00  0.00    +0.000 HD
ATOM     26  H   UNL     1      -9.651  -4.124   4.429  0.00  0.00    +0.000 HD
ATOM     27  H   UNL     1     -10.053  -3.338   5.857  0.00  0.00    +0.000 HD
ENDBRANCH  23  24
ENDBRANCH  22  23
ENDBRANCH  21  22
ENDBRANCH  20  21
ENDBRANCH  19  20
ENDBRANCH  18  19
ENDBRANCH   3  18
BRANCH   1  28
ATOM     28  C   UNL     1      -5.076   2.985  -2.251  0.00  0.00    +0.000 C 
BRANCH  28  29
ATOM     29  C   UNL     1      -5.974   3.214  -3.468  0.00  0.00    +0.000 C 
BRANCH  29  30
ATOM     30  C   UNL     1      -5.640   4.542  -4.096  0.00  0.00    +0.000 C 
ATOM     31  O   UNL     1      -4.773   5.235  -3.620  0.00  0.00    +0.000 OA
BRANCH  30  32
ATOM     32  O   UNL     1      -6.306   4.956  -5.186  0.00  0.00    +0.000 OA
BRANCH  32  34
ATOM     33  C   UNL     1      -6.793   6.545  -6.966  0.00  0.00    +0.000 C 
ATOM     34  C   UNL     1      -5.932   6.246  -5.738  0.00  0.00    +0.000 C 
ENDBRANCH  32  34
ENDBRANCH  30  32
ENDBRANCH  29  30
ENDBRANCH  28  29
ENDBRANCH   1  28
TORSDOF 14
ENDMDL
MODEL      243
REMARK  Name = ZINC15279602
REMARK  16 active torsions:
REMARK  status: ('A' for Active; 'I' for Inactive)
REMARK    1  A    between atoms: C_1  and  C_2
REMARK    2  A    between atoms: C_2  and  C_3
REMARK    3  A    between atoms: C_3  and  C_4
REMARK    4  A    between atoms: C_3  and  C_6
REMARK    5  A    between atoms: C_6  and  C_8
REMARK    6  A    between atoms: C_8  and  O_9
REMARK    7  A    between atoms: O_9  and  C_10
REMARK    8  A    between atoms: C_10  and  C_12
REMARK    9  A    between atoms: C_16  and  C_18
REMARK   10  A    between atoms: C_18  and  O_20
REMARK   11  A    between atoms: O_20  and  C_21
REMARK   12  A    between atoms: C_21  and  C_22
REMARK   13  A    between atoms: C_22  and  C_24
REMARK   14  A    between atoms: C_24  and  C_25
REMARK   15  A    between atoms: C_24  and  C_28
REMARK   16  A    between atoms: C_25  and  C_26
REMARK                            x       y       z     vdW  Elec       q    Type
REMARK                         _______ _______ _______ _____ _____    ______ ____
ROOT
ATOM      1  C   UNL     1      -1.497  -0.260  -2.761  0.00  0.00    +0.000 A 
ATOM      2  C   UNL     1      -1.463  -1.626  -3.050  0.00  0.00    +0.000 A 
ATOM      3  C   UNL     1      -2.601  -2.390  -2.844  0.00  0.00    +0.000 A 
ATOM      4  C   UNL     1      -3.742  -1.764  -2.367  0.00  0.00    +0.000 A 
ATOM      5  C   UNL     1      -3.708  -0.393  -2.104  0.00  0.00    +0.000 A 
ATOM      6  N   UNL     1      -2.603   0.307  -2.306  0.00  0.00    +0.000 NA
ENDROOT
BRANCH   1   7
ATOM      7  C   UNL     1      -0.285   0.564  -2.972  0.00  0.00    +0.000 C 
ATOM      8  O   UNL     1       0.733   0.050  -3.390  0.00  0.00    +0.000 OA
BRANCH   7   9
ATOM      9  O   UNL     1      -0.311   1.883  -2.702  0.00  0.00    +0.000 OA
BRANCH   9  10
ATOM     10  C   UNL     1       0.914   2.628  -2.932  0.00  0.00    +0.000 C 
BRANCH  10  11
ATOM     11  C   UNL     1       0.695   4.076  -2.577  0.00  0.00    +0.000 C 
ATOM     12  O   UNL     1      -0.387   4.444  -2.168  0.00  0.00    +0.000 OA
BRANCH  11  13
ATOM     13  C   UNL     1       1.752   5.007  -2.719  0.00  0.00    +0.000 C 
BRANCH  13  15
ATOM     14  C   UNL     1       0.208   6.793  -1.885  0.00  0.00    +0.000 C 
ATOM     15  C   UNL     1       1.552   6.336  -2.392  0.00  0.00    +0.000 C 
ATOM     16  N   UNL     1       2.559   7.223  -2.527  0.00  0.00    +0.000 NA
ATOM     17  H   UNL     1       2.410   8.213  -2.284  0.00  0.00    +0.000 HD
ENDBRANCH  13  15
BRANCH  13  18
ATOM     18  C   UNL     1       3.029   4.573  -3.200  0.00  0.00    +0.000 C 
ATOM     19  N   UNL     1       4.042   4.228  -3.582  0.00  0.00    +0.000 NA
ENDBRANCH  13  18
ENDBRANCH  11  13
ENDBRANCH  10  11
ENDBRANCH   9  10
ENDBRANCH   7   9
ENDBRANCH   1   7
BRANCH   5  20
ATOM     20  C   UNL     1      -4.922   0.285  -1.593  0.00  0.00    +0.000 C 
ATOM     21  O   UNL     1      -5.939  -0.352  -1.405  0.00  0.00    +0.000 OA
BRANCH  20  22
ATOM     22  O   UNL     1      -4.898   1.606  -1.336  0.00  0.00    +0.000 OA
BRANCH  22  23
ATOM     23  C   UNL     1      -6.124   2.204  -0.838  0.00  0.00    +0.000 C 
BRANCH  23  24
ATOM     24  C   UNL     1      -5.908   3.678  -0.610  0.00  0.00    +0.000 C 
ATOM     25  O   UNL     1      -4.826   4.176  -0.845  0.00  0.00    +0.000 OA
BRANCH  24  26
ATOM     26  C   UNL     1      -6.966   4.481  -0.122  0.00  0.00    +0.000 C 
BRANCH  26  27
ATOM     27  C   UNL     1      -6.735   5.805   0.206  0.00  0.00    +0.000 C 
ATOM     28  C   UNL     1      -5.330   6.350   0.196  0.00  0.00    +0.000 C 
ATOM     29  N   UNL     1      -7.768   6.609   0.534  0.00  0.00    +0.000 NA
ATOM     30  H   UNL     1      -8.728   6.237   0.541  0.00  0.00    +0.000 HD
ENDBRANCH  26  27
BRANCH  26  31
ATOM     31  C   UNL     1      -8.276   3.924   0.033  0.00  0.00    +0.000 C 
ATOM     32  N   UNL     1      -9.315   3.481   0.155  0.00  0.00    +0.000 NA
ENDBRANCH  26  31
ENDBRANCH  24  26
ENDBRANCH  23  24
ENDBRANCH  22  23
ENDBRANCH  20  22
ENDBRANCH   5  20
TORSDOF 14
ENDMDL
MODEL      244
REMARK  Name = ZINC29575621
REMARK  11 active torsions:
REMARK  status: ('A' for Active; 'I' for Inactive)
REMARK    1  A    between atoms: C_1  and  C_2
REMARK    2  A    between atoms: C_2  and  O_3
REMARK    3  A    between atoms: O_3  and  C_4
REMARK    4  A    between atoms: C_4  and  C_5
REMARK    5  A    between atoms: C_5  and  C_6
REMARK    6  A    between atoms: C_6  and  N_7
REMARK    7  A    between atoms: C_8  and  S_10
REMARK    8  A    between atoms: S_10  and  C_11
REMARK    9  A    between atoms: C_11  and  C_12
REMARK   10  A    between atoms: N_14  and  C_15
REMARK   11  A    between atoms: N_14  and  C_21
REMARK                            x       y       z     vdW  Elec       q    Type
REMARK                         _______ _______ _______ _____ _____    ______ ____
ROOT
ATOM      1  C   UNL     1       1.907  -3.062  -0.281  0.00  0.00    +0.000 C 
ATOM      2  O   UNL     1       3.115  -2.961  -0.285  0.00  0.00    +0.000 OA
ATOM      3  N   UNL     1       1.333  -4.282  -0.269  0.00  0.00    +0.000 N 
ENDROOT
BRANCH   3   4
ATOM      4  C   UNL     1      -0.120  -4.406  -0.135  0.00  0.00    +0.000 C 
ATOM      5  C   UNL     1      -0.449  -5.210   1.134  0.00  0.00    +0.000 C 
ATOM      6  C   UNL     1      -1.955  -5.595   1.088  0.00  0.00    +0.000 C 
ATOM      7  S   UNL     1      -2.135  -6.036  -0.692  0.00  0.00    +0.000 S 
ATOM      8  O   UNL     1      -1.919  -7.432  -0.846  0.00  0.00    +0.000 OA
ATOM      9  O   UNL     1      -3.330  -5.453  -1.195  0.00  0.00    +0.000 OA
ATOM     10  C   UNL     1      -0.691  -5.130  -1.378  0.00  0.00    +0.000 C 
ENDBRANCH   3   4
BRANCH   3  11
ATOM     11  C   UNL     1       2.126  -5.429  -0.384  0.00  0.00    +0.000 A 
ATOM     12  C   UNL     1       1.532  -6.684  -0.426  0.00  0.00    +0.000 A 
ATOM     13  C   UNL     1       2.317  -7.814  -0.544  0.00  0.00    +0.000 A 
ATOM     14  C   UNL     1       3.694  -7.698  -0.610  0.00  0.00    +0.000 A 
ATOM     15  C   UNL     1       4.288  -6.450  -0.563  0.00  0.00    +0.000 A 
ATOM     16  C   UNL     1       3.509  -5.316  -0.450  0.00  0.00    +0.000 A 
ENDBRANCH   3  11
BRANCH   1  17
ATOM     17  C   UNL     1       1.046  -1.825  -0.291  0.00  0.00    +0.000 C 
BRANCH  17  18
ATOM     18  S   UNL     1       2.097  -0.361  -0.456  0.00  0.00    +0.000 S 
BRANCH  18  20
ATOM     19  N   UNL     1      -0.392   0.584  -0.327  0.00  0.00    +0.000 N 
ATOM     20  C   UNL     1       0.868   0.902  -0.440  0.00  0.00    +0.000 C 
ATOM     21  N   UNL     1       1.237   2.223  -0.546  0.00  0.00    +0.000 N 
ATOM     22  H   UNL     1      -0.663  -0.397  -0.165  0.00  0.00    +0.000 HD
ATOM     23  H   UNL     1       0.518   2.961  -0.536  0.00  0.00    +0.000 HD
ATOM     24  H   UNL     1       2.232   2.474  -0.634  0.00  0.00    +0.000 HD
BRANCH  19  25
ATOM     25  C   UNL     1      -1.421   1.621  -0.432  0.00  0.00    +0.000 C 
BRANCH  25  26
ATOM     26  C   UNL     1      -2.338   1.311  -1.618  0.00  0.00    +0.000 C 
BRANCH  26  27
ATOM     27  C   UNL     1      -3.413   2.394  -1.727  0.00  0.00    +0.000 C 
BRANCH  27  28
ATOM     28  O   UNL     1      -4.269   2.105  -2.834  0.00  0.00    +0.000 OA
BRANCH  28  30
ATOM     29  C   UNL     1      -6.163   2.653  -4.232  0.00  0.00    +0.000 C 
ATOM     30  C   UNL     1      -5.314   3.061  -3.026  0.00  0.00    +0.000 C 
ENDBRANCH  28  30
ENDBRANCH  27  28
ENDBRANCH  26  27
ENDBRANCH  25  26
ENDBRANCH  19  25
ENDBRANCH  18  20
ENDBRANCH  17  18
ENDBRANCH   1  17
TORSDOF 10
ENDMDL
MODEL      245
REMARK  Name = ZINC02014017
REMARK  14 active torsions:
REMARK  status: ('A' for Active; 'I' for Inactive)
REMARK    1  A    between atoms: C_1  and  C_2
REMARK    2  A    between atoms: C_2  and  N_28
REMARK    3  A    between atoms: C_6  and  C_7
REMARK    4  A    between atoms: C_7  and  N_8
REMARK    5  A    between atoms: C_9  and  C_11
REMARK    6  A    between atoms: C_13  and  N_20
REMARK    7  A    between atoms: C_14  and  C_19
REMARK    8  A    between atoms: C_16  and  O_17
REMARK    9  A    between atoms: O_17  and  C_18
REMARK   10  A    between atoms: N_20  and  C_21
REMARK   11  A    between atoms: C_21  and  S_22
REMARK   12  A    between atoms: S_22  and  N_25
REMARK   13  A    between atoms: N_25  and  C_26
REMARK   14  A    between atoms: N_25  and  C_27
REMARK                            x       y       z     vdW  Elec       q    Type
REMARK                         _______ _______ _______ _____ _____    ______ ____
ROOT
ATOM      1  C   UNL     1      -0.053   0.284  -0.576  0.00  0.00    +0.000 A 
ATOM      2  C   UNL     1       1.176  -0.284  -0.231  0.00  0.00    +0.000 A 
ATOM      3  C   UNL     1       2.290   0.523  -0.080  0.00  0.00    +0.000 A 
ATOM      4  C   UNL     1       2.188   1.897  -0.270  0.00  0.00    +0.000 A 
ATOM      5  C   UNL     1       0.977   2.466  -0.611  0.00  0.00    +0.000 A 
ATOM      6  C   UNL     1      -0.147   1.669  -0.765  0.00  0.00    +0.000 A 
ATOM      7  C   UNL     1       3.405   2.770  -0.103  0.00  0.00    +0.000 C 
ENDROOT
BRANCH   1   9
ATOM      8  N   UNL     1      -1.129  -1.910  -0.662  0.00  0.00    +0.000 N 
ATOM      9  C   UNL     1      -1.245  -0.569  -0.738  0.00  0.00    +0.000 C 
ATOM     10  O   UNL     1      -2.332  -0.063  -0.941  0.00  0.00    +0.000 OA
ATOM     11  H   UNL     1      -0.225  -2.336  -0.415  0.00  0.00    +0.000 HD
BRANCH   8  12
ATOM     12  C   UNL     1      -2.290  -2.762  -0.933  0.00  0.00    +0.000 C 
BRANCH  12  16
ATOM     13  C   UNL     1      -3.140  -4.323   2.262  0.00  0.00    +0.000 C 
ATOM     14  C   UNL     1      -4.534  -4.382   1.602  0.00  0.00    +0.000 C 
ATOM     15  C   UNL     1      -4.246  -3.952   0.139  0.00  0.00    +0.000 C 
ATOM     16  C   UNL     1      -3.133  -2.893   0.337  0.00  0.00    +0.000 C 
ATOM     17  N   UNL     1      -2.309  -3.429   1.439  0.00  0.00    +0.000 N 
ATOM     18  H   UNL     1      -1.512  -3.955   1.052  0.00  0.00    +0.000 HD
BRANCH  17  20
ATOM     19  C   UNL     1      -1.015  -2.895   3.463  0.00  0.00    +0.000 C 
ATOM     20  C   UNL     1      -1.776  -2.317   2.268  0.00  0.00    +0.000 C 
ENDBRANCH  17  20
ENDBRANCH  12  16
ENDBRANCH   8  12
ENDBRANCH   1   9
BRANCH   3  21
ATOM     21  N   UNL     1       3.522  -0.045   0.265  0.00  0.00    +0.000 N 
ATOM     22  H   UNL     1       4.337   0.560   0.440  0.00  0.00    +0.000 HD
BRANCH  21  23
ATOM     23  C   UNL     1       3.652  -1.500   0.378  0.00  0.00    +0.000 C 
BRANCH  23  24
ATOM     24  S   UNL     1       4.277  -2.174  -1.186  0.00  0.00    +0.000 S 
ATOM     25  O   UNL     1       3.261  -2.131  -2.178  0.00  0.00    +0.000 OA
ATOM     26  O   UNL     1       5.576  -1.662  -1.455  0.00  0.00    +0.000 OA
BRANCH  24  27
ATOM     27  N   UNL     1       4.512  -3.786  -0.890  0.00  0.00    +0.000 NA
ATOM     28  C   UNL     1       3.464  -4.753  -1.230  0.00  0.00    +0.000 C 
ATOM     29  C   UNL     1       5.766  -4.246  -0.290  0.00  0.00    +0.000 C 
ENDBRANCH  24  27
ENDBRANCH  23  24
ENDBRANCH  21  23
ENDBRANCH   3  21
BRANCH   6  30
ATOM     30  O   UNL     1      -1.336   2.229  -1.106  0.00  0.00    +0.000 OA
ATOM     31  C   UNL     1      -1.358   3.647  -1.283  0.00  0.00    +0.000 C 
ENDBRANCH   6  30
TORSDOF 9
ENDMDL
MODEL      246
REMARK  Name = ZINC22205845
REMARK  13 active torsions:
REMARK  status: ('A' for Active; 'I' for Inactive)
REMARK    1  A    between atoms: C_1  and  N_2
REMARK    2  A    between atoms: N_2  and  C_3
REMARK    3  A    between atoms: N_2  and  C_12
REMARK    4  A    between atoms: C_3  and  C_4
REMARK    5  A    between atoms: C_4  and  C_5
REMARK    6  A    between atoms: C_4  and  O_11
REMARK    7  A    between atoms: C_5  and  N_6
REMARK    8  A    between atoms: N_6  and  S_7
REMARK    9  A    between atoms: C_12  and  C_13
REMARK   10  A    between atoms: C_13  and  C_14
REMARK   11  A    between atoms: C_13  and  O_23
REMARK   12  A    between atoms: C_14  and  O_15
REMARK   13  A    between atoms: O_15  and  C_16
REMARK                            x       y       z     vdW  Elec       q    Type
REMARK                         _______ _______ _______ _____ _____    ______ ____
ROOT
ATOM      1  C   UNL     1      -2.161   0.741   3.692  0.00  0.00    +0.000 C 
ATOM      2  N   UNL     1      -0.823   1.348   3.703  0.00  0.00    +0.000 N 
ATOM      3  H   UNL     1      -0.940   2.372   3.695  0.00  0.00    +0.000 HD
ENDROOT
BRANCH   2   4
ATOM      4  C   UNL     1      -0.064   0.971   2.503  0.00  0.00    +0.000 C 
BRANCH   4   5
ATOM      5  C   UNL     1      -0.729   1.579   1.267  0.00  0.00    +0.000 C 
BRANCH   5   6
ATOM      6  O   UNL     1      -0.647   3.004   1.334  0.00  0.00    +0.000 OA
ATOM      7  H   UNL     1       0.303   3.280   1.366  0.00  0.00    +0.000 HD
ENDBRANCH   5   6
BRANCH   5   8
ATOM      8  C   UNL     1      -0.013   1.086   0.008  0.00  0.00    +0.000 C 
BRANCH   8   9
ATOM      9  O   UNL     1      -0.704   1.559  -1.150  0.00  0.00    +0.000 OA
BRANCH   9  10
ATOM     10  C   UNL     1      -0.194   1.208  -2.360  0.00  0.00    +0.000 A 
ATOM     11  C   UNL     1       0.951   0.428  -2.431  0.00  0.00    +0.000 A 
ATOM     12  C   UNL     1       1.464   0.066  -3.661  0.00  0.00    +0.000 A 
ATOM     13  C   UNL     1       0.844   0.491  -4.822  0.00  0.00    +0.000 A 
ATOM     14  C   UNL     1      -0.295   1.274  -4.754  0.00  0.00    +0.000 A 
ATOM     15  C   UNL     1      -0.815   1.633  -3.525  0.00  0.00    +0.000 A 
ATOM     16 BR   UNL     1       1.552   0.001  -6.505  0.00  0.00    +0.000 Br
ENDBRANCH   9  10
ENDBRANCH   8   9
ENDBRANCH   5   8
ENDBRANCH   4   5
ENDBRANCH   2   4
BRANCH   2  17
ATOM     17  C   UNL     1      -0.091   0.987   4.924  0.00  0.00    +0.000 C 
BRANCH  17  18
ATOM     18  C   UNL     1      -0.784   1.611   6.138  0.00  0.00    +0.000 C 
BRANCH  18  19
ATOM     19  O   UNL     1      -0.803   3.032   5.997  0.00  0.00    +0.000 OA
ATOM     20  H   UNL     1      -1.296   3.277   5.174  0.00  0.00    +0.000 HD
ENDBRANCH  18  19
BRANCH  18  21
ATOM     21  C   UNL     1      -0.022   1.234   7.410  0.00  0.00    +0.000 C 
BRANCH  21  22
ATOM     22  N   UNL     1      -0.751   1.730   8.580  0.00  0.00    +0.000 NA
ATOM     23  H   UNL     1      -1.496   2.431   8.464  0.00  0.00    +0.000 HD
BRANCH  22  24
ATOM     24  S   UNL     1      -0.375   1.164  10.090  0.00  0.00    +0.000 S 
ATOM     25  O   UNL     1      -1.224   1.845  11.003  0.00  0.00    +0.000 OA
ATOM     26  O   UNL     1      -0.340  -0.254   9.995  0.00  0.00    +0.000 OA
ATOM     27  O   UNL     1       1.046   1.614  10.399  0.00  0.00    +0.000 OA
ENDBRANCH  22  24
ENDBRANCH  21  22
ENDBRANCH  18  21
ENDBRANCH  17  18
ENDBRANCH   2  17
TORSDOF 12
ENDMDL
MODEL      247
REMARK  Name = ZINC06006315
REMARK  20 active torsions:
REMARK  status: ('A' for Active; 'I' for Inactive)
REMARK    1  A    between atoms: C_1  and  C_2
REMARK    2  A    between atoms: N_4  and  C_10
REMARK    3  A    between atoms: C_10  and  C_11
REMARK    4  A    between atoms: C_10  and  O_13
REMARK    5  A    between atoms: C_11  and  O_12
REMARK    6  A    between atoms: O_13  and  C_14
REMARK    7  A    between atoms: C_14  and  C_15
REMARK    8  A    between atoms: C_14  and  C_28
REMARK    9  A    between atoms: C_15  and  N_16
REMARK   10  A    between atoms: N_16  and  C_17
REMARK   11  A    between atoms: N_16  and  O_27
REMARK   12  A    between atoms: C_17  and  C_18
REMARK   13  A    between atoms: C_18  and  C_19
REMARK   14  A    between atoms: C_19  and  C_20
REMARK   15  A    between atoms: C_19  and  C_21
REMARK   16  A    between atoms: C_21  and  C_22
REMARK   17  A    between atoms: C_22  and  C_23
REMARK   18  A    between atoms: C_24  and  C_25
REMARK   19  A    between atoms: C_24  and  C_26
REMARK   20  A    between atoms: C_28  and  O_29
REMARK                            x       y       z     vdW  Elec       q    Type
REMARK                         _______ _______ _______ _____ _____    ______ ____
ROOT
ATOM      1  C   UNL     1      -3.116   1.924   3.282  0.00  0.00    +0.000 C 
ENDROOT
BRANCH   1   2
ATOM      2  C   UNL     1      -3.900   3.211   3.545  0.00  0.00    +0.000 C 
BRANCH   2   3
ATOM      3  N   UNL     1      -3.966   4.005   2.310  0.00  0.00    +0.000 NA
BRANCH   3   4
ATOM      4  O   UNL     1      -4.756   3.318   1.288  0.00  0.00    +0.000 OA
ATOM      5  H   UNL     1      -5.671   3.171   1.635  0.00  0.00    +0.000 HD
ENDBRANCH   3   4
BRANCH   3   6
ATOM      6  C   UNL     1      -4.500   5.347   2.575  0.00  0.00    +0.000 C 
BRANCH   6   7
ATOM      7  C   UNL     1      -4.438   6.183   1.295  0.00  0.00    +0.000 C 
BRANCH   7   8
ATOM      8  C   UNL     1      -4.994   7.581   1.571  0.00  0.00    +0.000 C 
ATOM      9  C   UNL     1      -4.088   8.303   2.571  0.00  0.00    +0.000 C 
BRANCH   8  10
ATOM     10  C   UNL     1      -5.048   8.376   0.265  0.00  0.00    +0.000 C 
BRANCH  10  11
ATOM     11  C   UNL     1      -5.718   9.727   0.517  0.00  0.00    +0.000 C 
BRANCH  11  12
ATOM     12  C   UNL     1      -5.771  10.510  -0.769  0.00  0.00    +0.000 C 
ATOM     13  C   UNL     1      -6.928  10.845  -1.285  0.00  0.00    +0.000 C 
ATOM     14  C   UNL     1      -8.206  10.426  -0.606  0.00  0.00    +0.000 C 
ATOM     15  C   UNL     1      -6.980  11.649  -2.559  0.00  0.00    +0.000 C 
ENDBRANCH  11  12
ENDBRANCH  10  11
ENDBRANCH   8  10
ENDBRANCH   7   8
ENDBRANCH   6   7
ENDBRANCH   3   6
ENDBRANCH   2   3
ENDBRANCH   1   2
BRANCH   1  16
ATOM     16  O   UNL     1      -1.779   2.250   2.899  0.00  0.00    +0.000 OA
BRANCH  16  17
ATOM     17  C   UNL     1      -1.232   1.383   1.903  0.00  0.00    +0.000 C 
BRANCH  17  21
ATOM     18  C   UNL     1       0.891   2.045  -2.497  0.00  0.00    +0.000 C 
ATOM     19  C   UNL     1       0.682   2.457  -1.063  0.00  0.00    +0.000 A 
ATOM     20  C   UNL     1      -0.150   1.756  -0.264  0.00  0.00    +0.000 A 
ATOM     21  N   UNL     1      -0.329   2.144   1.036  0.00  0.00    +0.000 N 
ATOM     22  C   UNL     1       0.313   3.221   1.524  0.00  0.00    +0.000 A 
ATOM     23  O   UNL     1       0.136   3.551   2.681  0.00  0.00    +0.000 OA
ATOM     24  N   UNL     1       1.152   3.936   0.751  0.00  0.00    +0.000 N 
ATOM     25  C   UNL     1       1.355   3.586  -0.535  0.00  0.00    +0.000 A 
ATOM     26  O   UNL     1       2.111   4.234  -1.237  0.00  0.00    +0.000 OA
ATOM     27  H   UNL     1       1.641   4.753   1.143  0.00  0.00    +0.000 HD
ENDBRANCH  17  21
BRANCH  17  28
ATOM     28  C   UNL     1      -0.455   0.253   2.582  0.00  0.00    +0.000 C 
BRANCH  28  29
ATOM     29  O   UNL     1       0.604   0.806   3.366  0.00  0.00    +0.000 OA
ATOM     30  H   UNL     1       0.226   1.407   4.056  0.00  0.00    +0.000 HD
ENDBRANCH  28  29
ENDBRANCH  17  28
ENDBRANCH  16  17
ENDBRANCH   1  16
BRANCH   1  31
ATOM     31  C   UNL     1      -3.089   1.075   4.555  0.00  0.00    +0.000 C 
BRANCH  31  32
ATOM     32  O   UNL     1      -2.565   1.851   5.634  0.00  0.00    +0.000 OA
ATOM     33  H   UNL     1      -3.138   2.645   5.780  0.00  0.00    +0.000 HD
ENDBRANCH  31  32
ENDBRANCH   1  31
TORSDOF 16
ENDMDL
MODEL      248
REMARK  Name = ZINC29840205
REMARK  18 active torsions:
REMARK  status: ('A' for Active; 'I' for Inactive)
REMARK    1  A    between atoms: C_1  and  C_2
REMARK    2  A    between atoms: C_2  and  N_3
REMARK    3  A    between atoms: N_3  and  C_4
REMARK    4  A    between atoms: N_3  and  S_6
REMARK    5  A    between atoms: C_4  and  C_5
REMARK    6  A    between atoms: S_6  and  C_9
REMARK    7  A    between atoms: C_12  and  O_25
REMARK    8  A    between atoms: C_13  and  N_15
REMARK    9  A    between atoms: C_16  and  C_18
REMARK   10  A    between atoms: C_18  and  N_19
REMARK   11  A    between atoms: N_19  and  C_20
REMARK   12  A    between atoms: N_19  and  C_22
REMARK   13  A    between atoms: C_20  and  C_21
REMARK   14  A    between atoms: C_22  and  C_23
REMARK   15  A    between atoms: C_23  and  O_24
REMARK   16  A    between atoms: O_25  and  C_26
REMARK   17  A    between atoms: C_26  and  C_27
REMARK   18  A    between atoms: C_26  and  C_28
REMARK                            x       y       z     vdW  Elec       q    Type
REMARK                         _______ _______ _______ _____ _____    ______ ____
ROOT
ATOM      1  C   UNL     1      -1.011   3.656   0.042  0.00  0.00    +0.000 A 
ATOM      2  C   UNL     1      -1.211   2.301  -0.148  0.00  0.00    +0.000 A 
ATOM      3  C   UNL     1      -0.130   1.450  -0.280  0.00  0.00    +0.000 A 
ATOM      4  C   UNL     1       1.159   1.956  -0.234  0.00  0.00    +0.000 A 
ATOM      5  C   UNL     1       1.362   3.321  -0.049  0.00  0.00    +0.000 A 
ATOM      6  C   UNL     1       0.272   4.168   0.089  0.00  0.00    +0.000 A 
ENDROOT
BRANCH   5   7
ATOM      7  N   UNL     1       2.664   3.838  -0.001  0.00  0.00    +0.000 N 
ATOM      8  C   UNL     1       2.946   4.880   0.805  0.00  0.00    +0.000 C 
ATOM      9  O   UNL     1       2.059   5.421   1.431  0.00  0.00    +0.000 OA
ATOM     10  H   UNL     1       3.405   3.422  -0.583  0.00  0.00    +0.000 HD
BRANCH   8  11
ATOM     11  C   UNL     1       4.364   5.375   0.929  0.00  0.00    +0.000 C 
BRANCH  11  12
ATOM     12  N   UNL     1       4.429   6.426   1.953  0.00  0.00    +0.000 NA
BRANCH  12  13
ATOM     13  C   UNL     1       5.640   7.242   1.794  0.00  0.00    +0.000 C 
ATOM     14  C   UNL     1       5.465   8.189   0.605  0.00  0.00    +0.000 C 
ENDBRANCH  12  13
BRANCH  12  15
ATOM     15  C   UNL     1       4.354   5.853   3.303  0.00  0.00    +0.000 C 
BRANCH  15  16
ATOM     16  C   UNL     1       4.173   6.976   4.325  0.00  0.00    +0.000 C 
BRANCH  16  17
ATOM     17  O   UNL     1       2.911   7.613   4.115  0.00  0.00    +0.000 OA
ATOM     18  H   UNL     1       2.184   6.950   4.222  0.00  0.00    +0.000 HD
ENDBRANCH  16  17
ENDBRANCH  15  16
ENDBRANCH  12  15
ENDBRANCH  11  12
ENDBRANCH   8  11
ENDBRANCH   5   7
BRANCH   1  19
ATOM     19  S   UNL     1      -2.394   4.734   0.217  0.00  0.00    +0.000 S 
ATOM     20  O   UNL     1      -3.474   3.936   0.682  0.00  0.00    +0.000 OA
ATOM     21  O   UNL     1      -1.932   5.877   0.923  0.00  0.00    +0.000 OA
BRANCH  19  22
ATOM     22  N   UNL     1      -2.807   5.250  -1.301  0.00  0.00    +0.000 NA
BRANCH  22  23
ATOM     23  C   UNL     1      -2.205   6.468  -1.850  0.00  0.00    +0.000 C 
ATOM     24  C   UNL     1      -0.991   6.096  -2.704  0.00  0.00    +0.000 C 
ENDBRANCH  22  23
BRANCH  22  26
ATOM     25  C   UNL     1      -5.171   5.090  -1.908  0.00  0.00    +0.000 C 
ATOM     26  C   UNL     1      -3.776   4.490  -2.095  0.00  0.00    +0.000 C 
ENDBRANCH  22  26
ENDBRANCH  19  22
ENDBRANCH   1  19
BRANCH   4  27
ATOM     27  O   UNL     1       2.224   1.121  -0.370  0.00  0.00    +0.000 OA
BRANCH  27  28
ATOM     28  C   UNL     1       1.948  -0.280  -0.419  0.00  0.00    +0.000 C 
ATOM     29  C   UNL     1       1.817  -0.723  -1.878  0.00  0.00    +0.000 C 
ATOM     30  C   UNL     1       3.090  -1.049   0.246  0.00  0.00    +0.000 C 
ENDBRANCH  27  28
ENDBRANCH   4  27
TORSDOF 13
ENDMDL
MODEL      249
REMARK  Name = ZINC17089590
REMARK  12 active torsions:
REMARK  status: ('A' for Active; 'I' for Inactive)
REMARK    1  A    between atoms: C_1  and  C_2
REMARK    2  A    between atoms: N_6  and  C_7
REMARK    3  A    between atoms: C_7  and  C_8
REMARK    4  A    between atoms: C_8  and  C_9
REMARK    5  A    between atoms: C_8  and  C_10
REMARK    6  A    between atoms: N_12  and  N_13
REMARK    7  A    between atoms: N_13  and  C_14
REMARK    8  A    between atoms: C_14  and  N_16
REMARK    9  A    between atoms: N_16  and  C_17
REMARK   10  A    between atoms: C_17  and  C_18
REMARK   11  A    between atoms: C_18  and  C_19
REMARK   12  A    between atoms: C_19  and  N_20
REMARK                            x       y       z     vdW  Elec       q    Type
REMARK                         _______ _______ _______ _____ _____    ______ ____
ROOT
ATOM      1  C   UNL     1      -1.187   1.624   0.017  0.00  0.00    +0.000 C 
ATOM      2  O   UNL     1      -1.204   2.837   0.023  0.00  0.00    +0.000 OA
ATOM      3  N   UNL     1      -0.011   0.966   0.007  0.00  0.00    +0.000 N 
ATOM      4  H   UNL     1       0.003  -0.064   0.006  0.00  0.00    +0.000 HD
ENDROOT
BRANCH   1   5
ATOM      5  C   UNL     1      -2.482   0.853   0.018  0.00  0.00    +0.000 C 
ATOM      6  C   UNL     1      -2.545  -0.035   1.263  0.00  0.00    +0.000 C 
BRANCH   5   7
ATOM      7  C   UNL     1      -3.658   1.831   0.029  0.00  0.00    +0.000 C 
BRANCH   7  13
ATOM      8  C   UNL     1      -5.077   1.111  -2.631  0.00  0.00    +0.000 C 
ATOM      9  C   UNL     1      -5.542   0.766  -1.240  0.00  0.00    +0.000 A 
ATOM     10  C   UNL     1      -6.662   0.077  -0.921  0.00  0.00    +0.000 A 
ATOM     11  C   UNL     1      -6.726  -0.019   0.473  0.00  0.00    +0.000 A 
ATOM     12  N   UNL     1      -5.679   0.585   0.973  0.00  0.00    +0.000 NA
ATOM     13  N   UNL     1      -4.914   1.086  -0.089  0.00  0.00    +0.000 N 
ATOM     14  N   UNL     1      -7.794  -0.689   1.248  0.00  0.00    +0.000 N 
ATOM     15  O   UNL     1      -7.742  -0.708   2.465  0.00  0.00    +0.000 OA
ATOM     16  O   UNL     1      -8.725  -1.220   0.670  0.00  0.00    +0.000 OA
ENDBRANCH   7  13
ENDBRANCH   5   7
ENDBRANCH   1   5
BRANCH   3  17
ATOM     17  N   UNL     1       1.193   1.683  -0.000  0.00  0.00    +0.000 N 
ATOM     18  H   UNL     1       1.179   2.713   0.005  0.00  0.00    +0.000 HD
BRANCH  17  19
ATOM     19  C   UNL     1       2.369   1.025  -0.015  0.00  0.00    +0.000 C 
ATOM     20  S   UNL     1       3.840   1.901  -0.024  0.00  0.00    +0.000 S 
BRANCH  19  21
ATOM     21  N   UNL     1       2.387  -0.323  -0.022  0.00  0.00    +0.000 N 
ATOM     22  H   UNL     1       1.502  -0.850  -0.017  0.00  0.00    +0.000 HD
BRANCH  21  23
ATOM     23  C   UNL     1       3.666  -1.038  -0.038  0.00  0.00    +0.000 C 
BRANCH  23  24
ATOM     24  C   UNL     1       3.406  -2.546  -0.044  0.00  0.00    +0.000 C 
BRANCH  24  25
ATOM     25  C   UNL     1       4.742  -3.293  -0.061  0.00  0.00    +0.000 C 
BRANCH  25  26
ATOM     26  N   UNL     1       4.493  -4.740  -0.066  0.00  0.00    +0.000 NA
ATOM     27  C   UNL     1       3.873  -5.173   1.195  0.00  0.00    +0.000 C 
ATOM     28  C   UNL     1       3.577  -6.674   1.123  0.00  0.00    +0.000 C 
ATOM     29  O   UNL     1       4.789  -7.381   0.844  0.00  0.00    +0.000 OA
ATOM     30  C   UNL     1       5.419  -6.984  -0.377  0.00  0.00    +0.000 C 
ATOM     31  C   UNL     1       5.733  -5.487  -0.321  0.00  0.00    +0.000 C 
ENDBRANCH  25  26
ENDBRANCH  24  25
ENDBRANCH  23  24
ENDBRANCH  21  23
ENDBRANCH  19  21
ENDBRANCH  17  19
ENDBRANCH   3  17
TORSDOF 10
ENDMDL
MODEL      250
REMARK  Name = ZINC03293475
REMARK  12 active torsions:
REMARK  status: ('A' for Active; 'I' for Inactive)
REMARK    1  A    between atoms: C_3  and  S_24
REMARK    2  A    between atoms: C_6  and  C_7
REMARK    3  A    between atoms: C_7  and  C_8
REMARK    4  A    between atoms: C_8  and  N_28
REMARK    5  A    between atoms: C_9  and  C_10
REMARK    6  A    between atoms: C_9  and  N_28
REMARK    7  A    between atoms: C_10  and  C_11
REMARK    8  A    between atoms: C_10  and  O_23
REMARK    9  A    between atoms: C_11  and  O_12
REMARK   10  A    between atoms: O_12  and  C_13
REMARK   11  A    between atoms: C_13  and  C_14
REMARK   12  A    between atoms: S_24  and  N_27
REMARK                            x       y       z     vdW  Elec       q    Type
REMARK                         _______ _______ _______ _____ _____    ______ ____
ROOT
ATOM      1  N   UNL     1       1.000   7.758   4.521  0.00  0.00    +0.000 N 
ATOM      2  H   UNL     1       1.888   7.453   4.945  0.00  0.00    +0.000 HD
ATOM      3  H   UNL     1       0.219   7.285   4.997  0.00  0.00    +0.000 HD
ENDROOT
BRANCH   1   4
ATOM      4  C   UNL     1       0.859   9.218   4.678  0.00  0.00    +0.000 C 
BRANCH   4   5
ATOM      5  C   UNL     1       0.871   9.565   6.168  0.00  0.00    +0.000 C 
BRANCH   5  11
ATOM      6  C   UNL     1       1.852  11.858   6.383  0.00  0.00    +0.000 A 
ATOM      7  C   UNL     1       1.720  13.226   6.534  0.00  0.00    +0.000 A 
ATOM      8  C   UNL     1       0.463  13.790   6.648  0.00  0.00    +0.000 A 
ATOM      9  C   UNL     1      -0.662  12.987   6.607  0.00  0.00    +0.000 A 
ATOM     10  C   UNL     1      -0.530  11.620   6.452  0.00  0.00    +0.000 A 
ATOM     11  C   UNL     1       0.727  11.056   6.337  0.00  0.00    +0.000 A 
BRANCH   8  12
ATOM     12  S   UNL     1       0.294  15.533   6.845  0.00  0.00    +0.000 S 
ATOM     13  O   UNL     1       1.471  16.118   6.305  0.00  0.00    +0.000 OA
ATOM     14  O   UNL     1      -1.006  15.870   6.381  0.00  0.00    +0.000 OA
BRANCH  12  15
ATOM     15  N   UNL     1       0.313  15.846   8.471  0.00  0.00    +0.000 NA
ATOM     16  H   UNL     1       0.260  15.070   9.146  0.00  0.00    +0.000 HD
ATOM     17  H   UNL     1       0.378  16.818   8.808  0.00  0.00    +0.000 HD
ENDBRANCH  12  15
ENDBRANCH   8  12
ENDBRANCH   5  11
ENDBRANCH   4   5
ENDBRANCH   1   4
BRANCH   1  18
ATOM     18  C   UNL     1       0.992   7.393   3.091  0.00  0.00    +0.000 C 
BRANCH  18  19
ATOM     19  C   UNL     1       1.140   5.876   2.960  0.00  0.00    +0.000 C 
BRANCH  19  20
ATOM     20  O   UNL     1       2.373   5.465   3.554  0.00  0.00    +0.000 OA
ATOM     21  H   UNL     1       2.379   5.715   4.512  0.00  0.00    +0.000 HD
ENDBRANCH  19  20
BRANCH  19  22
ATOM     22  C   UNL     1       1.132   5.489   1.480  0.00  0.00    +0.000 C 
BRANCH  22  23
ATOM     23  O   UNL     1       1.153   4.066   1.360  0.00  0.00    +0.000 OA
BRANCH  23  24
ATOM     24  C   UNL     1       1.147   3.596   0.010  0.00  0.00    +0.000 C 
BRANCH  24  25
ATOM     25  C   UNL     1       1.171   2.089   0.002  0.00  0.00    +0.000 A 
ATOM     26  C   UNL     1       2.379   1.418  -0.011  0.00  0.00    +0.000 A 
ATOM     27  C   UNL     1       2.405   0.036  -0.020  0.00  0.00    +0.000 A 
ATOM     28  C   UNL     1       1.220  -0.680  -0.013  0.00  0.00    +0.000 A 
ATOM     29  C   UNL     1       0.002  -0.004   0.002  0.00  0.00    +0.000 A 
ATOM     30  C   UNL     1      -0.017   1.381   0.010  0.00  0.00    +0.000 A 
ATOM     31  O   UNL     1      -1.007  -0.923   0.006  0.00  0.00    +0.000 OA
ATOM     32  C   UNL     1      -0.404  -2.159  -0.418  0.00  0.00    +0.000 C 
ATOM     33  O   UNL     1       0.973  -2.023  -0.018  0.00  0.00    +0.000 OA
ENDBRANCH  24  25
ENDBRANCH  23  24
ENDBRANCH  22  23
ENDBRANCH  19  22
ENDBRANCH  18  19
ENDBRANCH   1  18
TORSDOF 12
ENDMDL
MODEL      251
REMARK  Name = ZINC24479437
REMARK  16 active torsions:
REMARK  status: ('A' for Active; 'I' for Inactive)
REMARK    1  A    between atoms: C_1  and  C_2
REMARK    2  A    between atoms: C_3  and  O_28
REMARK    3  A    between atoms: C_4  and  C_14
REMARK    4  A    between atoms: C_5  and  C_8
REMARK    5  A    between atoms: C_8  and  O_9
REMARK    6  A    between atoms: O_9  and  P_10
REMARK    7  A    between atoms: C_14  and  N_15
REMARK    8  A    between atoms: N_15  and  C_16
REMARK    9  A    between atoms: C_16  and  C_17
REMARK   10  A    between atoms: C_16  and  C_18
REMARK   11  A    between atoms: C_18  and  C_20
REMARK   12  A    between atoms: C_20  and  C_21
REMARK   13  A    between atoms: C_21  and  C_22
REMARK   14  A    between atoms: C_22  and  C_23
REMARK   15  A    between atoms: C_23  and  C_24
REMARK   16  A    between atoms: C_24  and  C_25
REMARK                            x       y       z     vdW  Elec       q    Type
REMARK                         _______ _______ _______ _____ _____    ______ ____
ROOT
ATOM      1  C   UNL     1      -1.798   0.663   1.583  0.00  0.00    +0.000 C 
ENDROOT
BRANCH   1   5
ATOM      2  C   UNL     1      -5.311   3.472   3.820  0.00  0.00    +0.000 C 
ATOM      3  C   UNL     1      -4.151   2.513   3.901  0.00  0.00    +0.000 A 
ATOM      4  C   UNL     1      -3.551   2.060   2.735  0.00  0.00    +0.000 A 
ATOM      5  C   UNL     1      -2.482   1.176   2.825  0.00  0.00    +0.000 A 
ATOM      6  C   UNL     1      -2.060   0.777   4.083  0.00  0.00    +0.000 A 
ATOM      7  C   UNL     1      -2.705   1.276   5.200  0.00  0.00    +0.000 A 
ATOM      8  N   UNL     1      -3.716   2.113   5.080  0.00  0.00    +0.000 NA
BRANCH   4   9
ATOM      9  O   UNL     1      -4.003   2.475   1.522  0.00  0.00    +0.000 OA
ATOM     10  H   UNL     1      -3.952   3.463   1.559  0.00  0.00    +0.000 HD
ENDBRANCH   4   9
BRANCH   6  11
ATOM     11  C   UNL     1      -0.913  -0.189   4.233  0.00  0.00    +0.000 C 
BRANCH  11  12
ATOM     12  O   UNL     1      -0.677  -0.437   5.620  0.00  0.00    +0.000 OA
BRANCH  12  13
ATOM     13  P   UNL     1       0.479  -1.424   6.150  0.00  0.00    +0.000 P 
ATOM     14  O   UNL     1       0.316  -2.755   5.525  0.00  0.00    +0.000 OA
ATOM     15  O   UNL     1       1.920  -0.821   5.760  0.00  0.00    +0.000 OA
ATOM     16  O   UNL     1       0.372  -1.565   7.750  0.00  0.00    +0.000 OA
ENDBRANCH  12  13
ENDBRANCH  11  12
ENDBRANCH   6  11
ENDBRANCH   1   5
BRANCH   1  17
ATOM     17  N   UNL     1      -0.700   1.569   1.220  0.00  0.00    +0.000 N 
ATOM     18  H   UNL     1      -0.027   1.618   1.998  0.00  0.00    +0.000 HD
ATOM     19  H   UNL     1      -1.079   2.512   1.050  0.00  0.00    +0.000 HD
BRANCH  17  20
ATOM     20  C   UNL     1      -0.008   1.100   0.012  0.00  0.00    +0.000 C 
ATOM     21  C   UNL     1      -0.749   1.606  -1.228  0.00  0.00    +0.000 C 
BRANCH  20  22
ATOM     22  C   UNL     1       1.403   1.628   0.004  0.00  0.00    +0.000 C 
ATOM     23  O   UNL     1       1.716   2.527   0.747  0.00  0.00    +0.000 OA
BRANCH  22  24
ATOM     24  C   UNL     1       2.425   1.034  -0.931  0.00  0.00    +0.000 C 
BRANCH  24  25
ATOM     25  C   UNL     1       3.766   1.744  -0.739  0.00  0.00    +0.000 C 
BRANCH  25  26
ATOM     26  C   UNL     1       4.803   1.141  -1.689  0.00  0.00    +0.000 C 
BRANCH  26  27
ATOM     27  C   UNL     1       6.145   1.851  -1.497  0.00  0.00    +0.000 C 
BRANCH  27  28
ATOM     28  C   UNL     1       7.181   1.248  -2.446  0.00  0.00    +0.000 C 
BRANCH  28  29
ATOM     29  C   UNL     1       8.503   1.947  -2.257  0.00  0.00    +0.000 C 
ATOM     30  O   UNL     1       8.605   2.837  -1.446  0.00  0.00    +0.000 OA
ATOM     31  O   UNL     1       9.567   1.582  -2.990  0.00  0.00    +0.000 OA
ENDBRANCH  28  29
ENDBRANCH  27  28
ENDBRANCH  26  27
ENDBRANCH  25  26
ENDBRANCH  24  25
ENDBRANCH  22  24
ENDBRANCH  20  22
ENDBRANCH  17  20
ENDBRANCH   1  17
TORSDOF 14
ENDMDL
MODEL      252
REMARK  Name = ZINC13730367
REMARK  9 active torsions:
REMARK  status: ('A' for Active; 'I' for Inactive)
REMARK    1  A    between atoms: C_3  and  C_9
REMARK    2  A    between atoms: C_5  and  C_7
REMARK    3  A    between atoms: C_12  and  C_14
REMARK    4  A    between atoms: C_14  and  N_29
REMARK    5  A    between atoms: C_15  and  C_16
REMARK    6  A    between atoms: C_15  and  N_29
REMARK    7  A    between atoms: C_16  and  N_17
REMARK    8  A    between atoms: N_17  and  C_18
REMARK    9  A    between atoms: C_21  and  N_25
REMARK                            x       y       z     vdW  Elec       q    Type
REMARK                         _______ _______ _______ _____ _____    ______ ____
ROOT
ATOM      1  N   UNL     1      -4.934   1.540   0.034  0.00  0.00    +0.000 N 
ATOM      2  H   UNL     1      -4.969   0.939   0.870  0.00  0.00    +0.000 HD
ATOM      3  H   UNL     1      -4.976   0.948  -0.808  0.00  0.00    +0.000 HD
ENDROOT
BRANCH   1   4
ATOM      4  C   UNL     1      -3.670   2.300   0.032  0.00  0.00    +0.000 C 
BRANCH   4   5
ATOM      5  C   UNL     1      -2.495   1.321   0.021  0.00  0.00    +0.000 C 
BRANCH   5   6
ATOM      6  N   UNL     1      -1.236   2.068   0.019  0.00  0.00    +0.000 N 
ATOM      7  H   UNL     1      -1.248   3.098   0.025  0.00  0.00    +0.000 HD
BRANCH   6   8
ATOM      8  C   UNL     1      -0.017   1.385   0.010  0.00  0.00    +0.000 A 
ATOM      9  C   UNL     1       0.002  -0.004   0.002  0.00  0.00    +0.000 A 
ATOM     10  C   UNL     1       1.208  -0.677  -0.013  0.00  0.00    +0.000 A 
ATOM     11  C   UNL     1       2.397   0.030  -0.021  0.00  0.00    +0.000 A 
ATOM     12  C   UNL     1       2.382   1.413  -0.014  0.00  0.00    +0.000 A 
ATOM     13  C   UNL     1       1.179   2.093   0.002  0.00  0.00    +0.000 A 
ATOM     14 CL   UNL     1       1.162   3.829   0.011  0.00  0.00    +0.000 Cl
BRANCH  11  15
ATOM     15  N   UNL     1       3.687  -0.695  -0.038  0.00  0.00    +0.000 N 
ATOM     16  O   UNL     1       3.701  -1.913  -0.045  0.00  0.00    +0.000 OA
ATOM     17  O   UNL     1       4.734  -0.074  -0.045  0.00  0.00    +0.000 OA
ENDBRANCH  11  15
ENDBRANCH   6   8
ENDBRANCH   5   6
ENDBRANCH   4   5
ENDBRANCH   1   4
BRANCH   1  18
ATOM     18  C   UNL     1      -6.086   2.461   0.044  0.00  0.00    +0.000 C 
BRANCH  18  22
ATOM     19  C   UNL     1      -9.120   0.553  -0.666  0.00  0.00    +0.000 A 
ATOM     20  C   UNL     1      -9.152   0.522   0.693  0.00  0.00    +0.000 A 
ATOM     21  C   UNL     1      -8.017   1.228   1.141  0.00  0.00    +0.000 A 
ATOM     22  C   UNL     1      -7.361   1.657   0.046  0.00  0.00    +0.000 A 
ATOM     23  O   UNL     1      -8.028   1.245  -1.044  0.00  0.00    +0.000 OA
BRANCH  19  26
ATOM     24  C   UNL     1     -12.130  -1.338  -1.888  0.00  0.00    +0.000 A 
ATOM     25  C   UNL     1     -11.203  -0.759  -1.044  0.00  0.00    +0.000 A 
ATOM     26  C   UNL     1     -10.111  -0.066  -1.571  0.00  0.00    +0.000 A 
ATOM     27  C   UNL     1      -9.962   0.047  -2.952  0.00  0.00    +0.000 A 
ATOM     28  C   UNL     1     -10.899  -0.544  -3.798  0.00  0.00    +0.000 A 
ATOM     29  C   UNL     1     -11.986  -1.235  -3.257  0.00  0.00    +0.000 A 
BRANCH  28  30
ATOM     30  C   UNL     1     -10.746  -0.434  -5.264  0.00  0.00    +0.000 C 
ATOM     31  O   UNL     1      -9.800   0.167  -5.732  0.00  0.00    +0.000 OA
ATOM     32  O   UNL     1     -11.655  -1.001  -6.080  0.00  0.00    +0.000 OA
ENDBRANCH  28  30
ENDBRANCH  19  26
ENDBRANCH  18  22
ENDBRANCH   1  18
TORSDOF 9
ENDMDL
MODEL      253
REMARK  Name = ZINC28314515
REMARK  17 active torsions:
REMARK  status: ('A' for Active; 'I' for Inactive)
REMARK    1  A    between atoms: C_1  and  O_2
REMARK    2  A    between atoms: O_2  and  C_3
REMARK    3  A    between atoms: C_5  and  C_16
REMARK    4  A    between atoms: C_7  and  O_14
REMARK    5  A    between atoms: C_8  and  O_9
REMARK    6  A    between atoms: O_9  and  C_10
REMARK    7  A    between atoms: C_10  and  C_11
REMARK    8  A    between atoms: O_14  and  C_15
REMARK    9  A    between atoms: C_16  and  N_17
REMARK   10  A    between atoms: N_17  and  C_18
REMARK   11  A    between atoms: C_18  and  C_19
REMARK   12  A    between atoms: C_21  and  O_29
REMARK   13  A    between atoms: C_22  and  O_27
REMARK   14  A    between atoms: C_24  and  O_25
REMARK   15  A    between atoms: O_25  and  C_26
REMARK   16  A    between atoms: O_27  and  C_28
REMARK   17  A    between atoms: O_29  and  C_30
REMARK                            x       y       z     vdW  Elec       q    Type
REMARK                         _______ _______ _______ _____ _____    ______ ____
ROOT
ATOM      1  C   UNL     1       5.288   3.485   9.002  0.00  0.00    +0.000 A 
ATOM      2  C   UNL     1       4.221   2.640   8.734  0.00  0.00    +0.000 A 
ATOM      3  C   UNL     1       4.428   1.462   8.042  0.00  0.00    +0.000 A 
ATOM      4  C   UNL     1       5.699   1.118   7.619  0.00  0.00    +0.000 A 
ATOM      5  C   UNL     1       6.769   1.960   7.878  0.00  0.00    +0.000 A 
ATOM      6  C   UNL     1       6.566   3.146   8.573  0.00  0.00    +0.000 A 
ENDROOT
BRANCH   5   7
ATOM      7  O   UNL     1       8.018   1.624   7.456  0.00  0.00    +0.000 OA
ATOM      8  C   UNL     1       8.153   0.391   6.747  0.00  0.00    +0.000 C 
ENDBRANCH   5   7
BRANCH   1  10
ATOM      9  C   UNL     1       3.744   4.928  10.094  0.00  0.00    +0.000 C 
ATOM     10  O   UNL     1       5.083   4.644   9.684  0.00  0.00    +0.000 OA
ENDBRANCH   1  10
BRANCH   6  11
ATOM     11  O   UNL     1       7.615   3.973   8.834  0.00  0.00    +0.000 OA
BRANCH  11  12
ATOM     12  C   UNL     1       8.322   3.758  10.057  0.00  0.00    +0.000 C 
BRANCH  12  13
ATOM     13  C   UNL     1       9.441   4.760  10.173  0.00  0.00    +0.000 C 
ATOM     14  O   UNL     1       9.616   5.578   9.295  0.00  0.00    +0.000 OA
ATOM     15  N   UNL     1      10.248   4.748  11.253  0.00  0.00    +0.000 N 
ATOM     16  H   UNL     1      10.099   4.054  11.999  0.00  0.00    +0.000 HD
ATOM     17  H   UNL     1      11.013   5.433  11.332  0.00  0.00    +0.000 HD
ENDBRANCH  12  13
ENDBRANCH  11  12
ENDBRANCH   6  11
BRANCH   3  18
ATOM     18  C   UNL     1       3.267   0.546   7.753  0.00  0.00    +0.000 C 
BRANCH  18  19
ATOM     19  N   UNL     1       2.664   0.911   6.464  0.00  0.00    +0.000 N 
ATOM     20  H   UNL     1       2.341   1.888   6.504  0.00  0.00    +0.000 HD
ATOM     21  H   UNL     1       3.372   0.826   5.721  0.00  0.00    +0.000 HD
BRANCH  19  22
ATOM     22  C   UNL     1       1.526   0.037   6.149  0.00  0.00    +0.000 C 
BRANCH  22  23
ATOM     23  C   UNL     1       0.935   0.441   4.822  0.00  0.00    +0.000 A 
ATOM     24  C   UNL     1      -0.204   1.224   4.784  0.00  0.00    +0.000 A 
ATOM     25  C   UNL     1      -0.746   1.601   3.566  0.00  0.00    +0.000 A 
ATOM     26  C   UNL     1      -0.148   1.182   2.380  0.00  0.00    +0.000 A 
ATOM     27  C   UNL     1       0.993   0.398   2.421  0.00  0.00    +0.000 A 
ATOM     28  C   UNL     1       1.535   0.028   3.643  0.00  0.00    +0.000 A 
BRANCH  25  29
ATOM     29  O   UNL     1      -1.863   2.375   3.528  0.00  0.00    +0.000 OA
ATOM     30  C   UNL     1      -2.423   2.768   4.783  0.00  0.00    +0.000 C 
ENDBRANCH  25  29
BRANCH  26  31
ATOM     31  O   UNL     1      -0.682   1.547   1.184  0.00  0.00    +0.000 OA
ATOM     32  C   UNL     1      -0.013   1.086   0.008  0.00  0.00    +0.000 C 
ENDBRANCH  26  31
BRANCH  28  33
ATOM     33  O   UNL     1       2.655  -0.742   3.683  0.00  0.00    +0.000 OA
ATOM     34  C   UNL     1       3.220  -1.132   2.430  0.00  0.00    +0.000 C 
ENDBRANCH  28  33
ENDBRANCH  22  23
ENDBRANCH  19  22
ENDBRANCH  18  19
ENDBRANCH   3  18
TORSDOF 12
ENDMDL
MODEL      254
REMARK  Name = ZINC22994556
REMARK  15 active torsions:
REMARK  status: ('A' for Active; 'I' for Inactive)
REMARK    1  A    between atoms: C_1  and  C_2
REMARK    2  A    between atoms: C_2  and  C_3
REMARK    3  A    between atoms: C_2  and  C_4
REMARK    4  A    between atoms: C_4  and  N_5
REMARK    5  A    between atoms: C_6  and  N_28
REMARK    6  A    between atoms: C_7  and  N_13
REMARK    7  A    between atoms: N_13  and  C_14
REMARK    8  A    between atoms: N_13  and  C_19
REMARK    9  A    between atoms: C_14  and  C_15
REMARK   10  A    between atoms: C_15  and  C_16
REMARK   11  A    between atoms: C_16  and  O_17
REMARK   12  A    between atoms: O_17  and  C_18
REMARK   13  A    between atoms: C_19  and  C_20
REMARK   14  A    between atoms: N_22  and  C_23
REMARK   15  A    between atoms: C_23  and  C_24
REMARK                            x       y       z     vdW  Elec       q    Type
REMARK                         _______ _______ _______ _____ _____    ______ ____
ROOT
ATOM      1  N   UNL     1      -2.590   3.227  -1.926  0.00  0.00    +0.000 N 
ATOM      2  C   UNL     1      -1.872   2.751  -0.853  0.00  0.00    +0.000 A 
ATOM      3  C   UNL     1      -0.772   1.967  -1.075  0.00  0.00    +0.000 A 
ATOM      4  C   UNL     1      -0.400   1.675  -2.400  0.00  0.00    +0.000 A 
ATOM      5  O   UNL     1       0.579   0.983  -2.623  0.00  0.00    +0.000 OA
ATOM      6  N   UNL     1      -1.136   2.158  -3.420  0.00  0.00    +0.000 N 
ATOM      7  C   UNL     1      -2.214   2.927  -3.183  0.00  0.00    +0.000 A 
ATOM      8  O   UNL     1      -2.860   3.357  -4.120  0.00  0.00    +0.000 OA
ATOM      9  H   UNL     1      -0.870   1.937  -4.390  0.00  0.00    +0.000 HD
ENDROOT
BRANCH   2  10
ATOM     10  N   UNL     1      -2.258   3.058   0.432  0.00  0.00    +0.000 N 
ATOM     11  H   UNL     1      -3.087   3.648   0.590  0.00  0.00    +0.000 HD
ATOM     12  H   UNL     1      -1.719   2.700   1.234  0.00  0.00    +0.000 HD
ENDBRANCH   2  10
BRANCH   3  13
ATOM     13  N   UNL     1      -0.018   1.465   0.010  0.00  0.00    +0.000 N 
BRANCH  13  14
ATOM     14  C   UNL     1       1.346   2.010   0.000  0.00  0.00    +0.000 C 
BRANCH  14  15
ATOM     15  C   UNL     1       2.039   1.654   1.290  0.00  0.00    +0.000 C 
ATOM     16  O   UNL     1       1.454   1.009   2.135  0.00  0.00    +0.000 OA
ATOM     17  N   UNL     1       3.309   2.051   1.505  0.00  0.00    +0.000 N 
ATOM     18  H   UNL     1       3.806   2.599   0.788  0.00  0.00    +0.000 HD
BRANCH  17  19
ATOM     19  C   UNL     1       3.982   1.705   2.759  0.00  0.00    +0.000 C 
BRANCH  19  20
ATOM     20  C   UNL     1       5.403   2.272   2.749  0.00  0.00    +0.000 C 
ATOM     21  F   UNL     1       5.348   3.664   2.618  0.00  0.00    +0.000 F 
ATOM     22  F   UNL     1       6.046   1.942   3.946  0.00  0.00    +0.000 F 
ATOM     23  F   UNL     1       6.114   1.731   1.672  0.00  0.00    +0.000 F 
ENDBRANCH  19  20
ENDBRANCH  17  19
ENDBRANCH  14  15
ENDBRANCH  13  14
BRANCH  13  24
ATOM     24  C   UNL     1       0.002  -0.004   0.002  0.00  0.00    +0.000 C 
BRANCH  24  25
ATOM     25  C   UNL     1      -1.409  -0.535   0.263  0.00  0.00    +0.000 C 
BRANCH  25  26
ATOM     26  C   UNL     1      -1.388  -2.064   0.255  0.00  0.00    +0.000 C 
BRANCH  26  27
ATOM     27  O   UNL     1      -2.706  -2.560   0.499  0.00  0.00    +0.000 OA
ATOM     28  C   UNL     1      -2.798  -3.986   0.511  0.00  0.00    +0.000 C 
ENDBRANCH  26  27
ENDBRANCH  25  26
ENDBRANCH  24  25
ENDBRANCH  13  24
ENDBRANCH   3  13
BRANCH   1  29
ATOM     29  C   UNL     1      -3.769   4.066  -1.699  0.00  0.00    +0.000 C 
BRANCH  29  31
ATOM     30  C   UNL     1      -4.591   6.421  -1.542  0.00  0.00    +0.000 C 
ATOM     31  C   UNL     1      -3.347   5.537  -1.654  0.00  0.00    +0.000 C 
ATOM     32  C   UNL     1      -2.445   5.771  -0.441  0.00  0.00    +0.000 C 
ENDBRANCH  29  31
ENDBRANCH   1  29
TORSDOF 12
ENDMDL
MODEL      255
REMARK  Name = ZINC05887406
REMARK  17 active torsions:
REMARK  status: ('A' for Active; 'I' for Inactive)
REMARK    1  A    between atoms: C_1  and  C_2
REMARK    2  A    between atoms: C_2  and  C_3
REMARK    3  A    between atoms: C_2  and  C_4
REMARK    4  A    between atoms: C_4  and  C_5
REMARK    5  A    between atoms: C_5  and  C_6
REMARK    6  A    between atoms: C_5  and  C_15
REMARK    7  A    between atoms: C_6  and  C_7
REMARK    8  A    between atoms: C_6  and  C_11
REMARK    9  A    between atoms: C_7  and  C_8
REMARK   10  A    between atoms: C_8  and  C_9
REMARK   11  A    between atoms: C_9  and  O_10
REMARK   12  A    between atoms: N_13  and  O_14
REMARK   13  A    between atoms: N_17  and  C_18
REMARK   14  A    between atoms: N_23  and  C_26
REMARK   15  A    between atoms: C_26  and  C_27
REMARK   16  A    between atoms: C_27  and  O_28
REMARK   17  A    between atoms: O_28  and  C_29
REMARK                            x       y       z     vdW  Elec       q    Type
REMARK                         _______ _______ _______ _____ _____    ______ ____
ROOT
ATOM      1  C   UNL     1       4.368   4.755   0.262  0.00  0.00    +0.000 C 
ENDROOT
BRANCH   1   2
ATOM      2  C   UNL     1       3.006   4.142   0.463  0.00  0.00    +0.000 C 
ATOM      3  O   UNL     1       2.599   3.922   1.584  0.00  0.00    +0.000 OA
ATOM      4  N   UNL     1       2.240   3.839  -0.604  0.00  0.00    +0.000 N 
ATOM      5  H   UNL     1       2.614   3.955  -1.557  0.00  0.00    +0.000 HD
BRANCH   4   6
ATOM      6  C   UNL     1       0.934   3.367  -0.417  0.00  0.00    +0.000 C 
ATOM      7  C   UNL     1       0.689   2.199  -0.948  0.00  0.00    +0.000 C 
ATOM      8  C   UNL     1      -0.587   1.444  -0.884  0.00  0.00    +0.000 C 
ATOM      9  C   UNL     1      -1.815   2.316  -0.932  0.00  0.00    +0.000 C 
ATOM     10  C   UNL     1      -2.091   3.032   0.365  0.00  0.00    +0.000 C 
ATOM     11  N   UNL     1      -1.211   4.145   0.616  0.00  0.00    +0.000 N 
ATOM     12  C   UNL     1       0.069   4.246   0.333  0.00  0.00    +0.000 C 
ATOM     13  O   UNL     1       0.612   5.241   0.773  0.00  0.00    +0.000 OA
BRANCH  11  14
ATOM     14  C   UNL     1      -1.818   5.309   1.266  0.00  0.00    +0.000 C 
BRANCH  14  15
ATOM     15  C   UNL     1      -1.701   5.163   2.785  0.00  0.00    +0.000 C 
BRANCH  15  16
ATOM     16  O   UNL     1      -0.323   5.196   3.162  0.00  0.00    +0.000 OA
ATOM     17  C   UNL     1      -0.101   5.066   4.567  0.00  0.00    +0.000 C 
ENDBRANCH  15  16
ENDBRANCH  14  15
ENDBRANCH  11  14
ENDBRANCH   4   6
ENDBRANCH   1   2
BRANCH   1  18
ATOM     18  C   UNL     1       4.564   5.899   1.259  0.00  0.00    +0.000 C 
BRANCH  18  19
ATOM     19  C   UNL     1       3.505   6.947   1.035  0.00  0.00    +0.000 C 
ATOM     20  O   UNL     1       3.051   7.124  -0.075  0.00  0.00    +0.000 OA
ATOM     21  N   UNL     1       3.061   7.688   2.070  0.00  0.00    +0.000 N 
ATOM     22  H   UNL     1       3.499   7.592   2.997  0.00  0.00    +0.000 HD
BRANCH  21  23
ATOM     23  O   UNL     1       1.992   8.598   1.883  0.00  0.00    +0.000 OA
ATOM     24  H   UNL     1       1.248   8.051   1.527  0.00  0.00    +0.000 HD
ENDBRANCH  21  23
ENDBRANCH  18  19
BRANCH  18  25
ATOM     25  C   UNL     1       5.947   6.521   1.055  0.00  0.00    +0.000 C 
BRANCH  25  26
ATOM     26  C   UNL     1       6.190   7.587   2.126  0.00  0.00    +0.000 C 
BRANCH  26  27
ATOM     27  C   UNL     1       7.538   8.266   1.873  0.00  0.00    +0.000 C 
BRANCH  27  28
ATOM     28  O   UNL     1       7.764   9.261   2.874  0.00  0.00    +0.000 OA
ATOM     29  H   UNL     1       7.772   8.836   3.768  0.00  0.00    +0.000 HD
ENDBRANCH  27  28
ENDBRANCH  26  27
ENDBRANCH  25  26
ENDBRANCH  18  25
ENDBRANCH   1  18
BRANCH   1  30
ATOM     30  C   UNL     1       5.444   3.691   0.489  0.00  0.00    +0.000 C 
BRANCH  30  32
ATOM     31  C   UNL     1       5.673   3.199  -1.950  0.00  0.00    +0.000 C 
ATOM     32  C   UNL     1       5.323   2.607  -0.584  0.00  0.00    +0.000 C 
ATOM     33  C   UNL     1       6.285   1.461  -0.262  0.00  0.00    +0.000 C 
ENDBRANCH  30  32
ENDBRANCH   1  30
TORSDOF 14
ENDMDL
MODEL      256
REMARK  Name = ZINC20913792
REMARK  10 active torsions:
REMARK  status: ('A' for Active; 'I' for Inactive)
REMARK    1  A    between atoms: C_1  and  O_2
REMARK    2  A    between atoms: O_2  and  C_3
REMARK    3  A    between atoms: C_3  and  C_5
REMARK    4  A    between atoms: C_8  and  C_11
REMARK    5  A    between atoms: N_12  and  N_13
REMARK    6  A    between atoms: N_13  and  C_14
REMARK    7  A    between atoms: C_17  and  S_20
REMARK    8  A    between atoms: N_18  and  N_19
REMARK    9  A    between atoms: S_20  and  C_21
REMARK   10  A    between atoms: C_21  and  C_22
REMARK                            x       y       z     vdW  Elec       q    Type
REMARK                         _______ _______ _______ _____ _____    ______ ____
ROOT
ATOM      1  C   UNL     1      -6.257   7.370   0.071  0.00  0.00    +0.000 A 
ATOM      2  N   UNL     1      -5.214   8.162   0.076  0.00  0.00    +0.000 NA
ATOM      3  N   UNL     1      -5.593   9.390   0.080  0.00  0.00    +0.000 NA
ATOM      4  C   UNL     1      -6.902   9.456   0.086  0.00  0.00    +0.000 A 
ATOM      5  N   UNL     1      -7.371   8.169   0.081  0.00  0.00    +0.000 N 
ENDROOT
BRANCH   5   6
ATOM      6  N   UNL     1      -8.677   7.766   0.085  0.00  0.00    +0.000 N 
ATOM      7  H   UNL     1      -8.815   6.745   0.079  0.00  0.00    +0.000 HD
ATOM      8  H   UNL     1      -9.475   8.417   0.092  0.00  0.00    +0.000 HD
ENDBRANCH   5   6
BRANCH   1   9
ATOM      9  N   UNL     1      -6.238   5.983   0.064  0.00  0.00    +0.000 NA
BRANCH   9  11
ATOM     10  C   UNL     1      -4.998   3.999   0.047  0.00  0.00    +0.000 C 
ATOM     11  N   UNL     1      -5.016   5.299   0.054  0.00  0.00    +0.000 N 
ATOM     12  H   UNL     1      -4.131   5.826   0.053  0.00  0.00    +0.000 HD
BRANCH  10  16
ATOM     13  C   UNL     1      -1.301   1.931   0.019  0.00  0.00    +0.000 A 
ATOM     14  C   UNL     1      -1.320   3.329   0.032  0.00  0.00    +0.000 A 
ATOM     15  C   UNL     1      -2.511   3.996   0.036  0.00  0.00    +0.000 A 
ATOM     16  C   UNL     1      -3.714   3.280   0.037  0.00  0.00    +0.000 A 
ATOM     17  C   UNL     1      -3.695   1.881   0.029  0.00  0.00    +0.000 A 
ATOM     18  C   UNL     1      -2.503   1.215   0.021  0.00  0.00    +0.000 A 
BRANCH  13  19
ATOM     19  C   UNL     1      -0.014   1.211   0.009  0.00  0.00    +0.000 C 
ATOM     20  O   UNL     1       0.002  -0.004   0.002  0.00  0.00    +0.000 OA
BRANCH  19  22
ATOM     21  C   UNL     1       2.372   1.127  -0.015  0.00  0.00    +0.000 C 
ATOM     22  O   UNL     1       1.143   1.901   0.001  0.00  0.00    +0.000 OA
ENDBRANCH  19  22
ENDBRANCH  13  19
ENDBRANCH  10  16
ENDBRANCH   9  11
ENDBRANCH   1   9
BRANCH   4  23
ATOM     23  S   UNL     1      -7.875  10.925   0.099  0.00  0.00    +0.000 S 
BRANCH  23  24
ATOM     24  C   UNL     1      -6.563  12.171   0.100  0.00  0.00    +0.000 C 
BRANCH  24  25
ATOM     25  C   UNL     1      -7.178  13.547   0.110  0.00  0.00    +0.000 C 
ATOM     26  O   UNL     1      -8.384  13.673   0.116  0.00  0.00    +0.000 OA
ATOM     27  N   UNL     1      -6.387  14.639   0.113  0.00  0.00    +0.000 N 
ATOM     28  C   UNL     1      -6.954  15.908   0.123  0.00  0.00    +0.000 A 
ATOM     29  N   UNL     1      -8.286  16.201   0.130  0.00  0.00    +0.000 NA
ATOM     30  C   UNL     1      -8.366  17.564   0.138  0.00  0.00    +0.000 A 
ATOM     31  N   UNL     1      -7.146  18.024   0.126  0.00  0.00    +0.000 NA
ATOM     32  N   UNL     1      -6.308  17.049   0.126  0.00  0.00    +0.000 NA
ATOM     33  H   UNL     1      -5.362  14.532   0.108  0.00  0.00    +0.000 HD
ENDBRANCH  24  25
ENDBRANCH  23  24
ENDBRANCH   4  23
TORSDOF 9
ENDMDL
MODEL      257
REMARK  Name = ZINC31424826
REMARK  13 active torsions:
REMARK  status: ('A' for Active; 'I' for Inactive)
REMARK    1  A    between atoms: C_8  and  S_9
REMARK    2  A    between atoms: S_9  and  N_12
REMARK    3  A    between atoms: N_12  and  C_13
REMARK    4  A    between atoms: C_13  and  C_14
REMARK    5  A    between atoms: C_13  and  C_16
REMARK    6  A    between atoms: C_16  and  C_17
REMARK    7  A    between atoms: C_16  and  O_23
REMARK    8  A    between atoms: C_17  and  C_18
REMARK    9  A    between atoms: C_17  and  O_22
REMARK   10  A    between atoms: C_18  and  C_19
REMARK   11  A    between atoms: C_18  and  O_21
REMARK   12  A    between atoms: C_19  and  O_20
REMARK   13  A    between atoms: C_24  and  N_26
REMARK                            x       y       z     vdW  Elec       q    Type
REMARK                         _______ _______ _______ _____ _____    ______ ____
ROOT
ATOM      1  N   UNL     1       2.208   5.868   1.560  0.00  0.00    +0.000 NA
ATOM      2  H   UNL     1       2.362   5.326   2.422  0.00  0.00    +0.000 HD
ENDROOT
BRANCH   1   3
ATOM      3  S   UNL     1       1.449   7.338   1.630  0.00  0.00    +0.000 S 
ATOM      4  O   UNL     1       1.133   7.568   2.996  0.00  0.00    +0.000 OA
ATOM      5  O   UNL     1       2.240   8.241   0.869  0.00  0.00    +0.000 OA
BRANCH   3  13
ATOM      6  C   UNL     1      -1.864   4.751   2.961  0.00  0.00    +0.000 A 
ATOM      7  C   UNL     1      -0.881   5.587   2.467  0.00  0.00    +0.000 A 
ATOM      8  C   UNL     1      -1.083   6.321   1.283  0.00  0.00    +0.000 A 
ATOM      9  C   UNL     1      -2.308   6.201   0.587  0.00  0.00    +0.000 A 
ATOM     10  C   UNL     1      -2.511   6.925  -0.584  0.00  0.00    +0.000 A 
ATOM     11  C   UNL     1      -1.513   7.753  -1.055  0.00  0.00    +0.000 A 
ATOM     12  C   UNL     1      -0.312   7.876  -0.369  0.00  0.00    +0.000 A 
ATOM     13  C   UNL     1      -0.086   7.173   0.779  0.00  0.00    +0.000 A 
ATOM     14  C   UNL     1      -3.347   5.305   1.126  0.00  0.00    +0.000 A 
ATOM     15  C   UNL     1      -3.075   4.597   2.324  0.00  0.00    +0.000 A 
BRANCH  14  16
ATOM     16  N   UNL     1      -4.505   5.164   0.507  0.00  0.00    +0.000 NA
ATOM     17  N   UNL     1      -5.288   4.477   0.929  0.00  0.00    +0.000 NA
ATOM     18  N   UNL     1      -6.071   3.791   1.352  0.00  0.00    +0.000 NA
ENDBRANCH  14  16
ENDBRANCH   3  13
ENDBRANCH   1   3
BRANCH   1  19
ATOM     19  C   UNL     1       2.662   5.339   0.271  0.00  0.00    +0.000 C 
BRANCH  19  20
ATOM     20  C   UNL     1       4.106   5.712   0.054  0.00  0.00    +0.000 C 
ATOM     21  O   UNL     1       4.695   6.355   0.890  0.00  0.00    +0.000 OA
ENDBRANCH  19  20
BRANCH  19  22
ATOM     22  C   UNL     1       2.523   3.815   0.269  0.00  0.00    +0.000 C 
BRANCH  22  23
ATOM     23  O   UNL     1       3.321   3.263   1.318  0.00  0.00    +0.000 OA
ATOM     24  H   UNL     1       3.015   3.620   2.189  0.00  0.00    +0.000 HD
ENDBRANCH  22  23
BRANCH  22  25
ATOM     25  C   UNL     1       1.058   3.436   0.489  0.00  0.00    +0.000 C 
BRANCH  25  26
ATOM     26  O   UNL     1       0.260   3.988  -0.560  0.00  0.00    +0.000 OA
ATOM     27  H   UNL     1       0.565   3.630  -1.431  0.00  0.00    +0.000 HD
ENDBRANCH  25  26
BRANCH  25  28
ATOM     28  C   UNL     1       0.919   1.912   0.487  0.00  0.00    +0.000 C 
BRANCH  28  29
ATOM     29  O   UNL     1       1.468   1.385  -0.723  0.00  0.00    +0.000 OA
ATOM     30  H   UNL     1       2.426   1.629  -0.785  0.00  0.00    +0.000 HD
ENDBRANCH  28  29
BRANCH  28  31
ATOM     31  C   UNL     1      -0.560   1.534   0.582  0.00  0.00    +0.000 C 
BRANCH  31  32
ATOM     32  O   UNL     1      -0.683   0.115   0.697  0.00  0.00    +0.000 OA
ATOM     33  H   UNL     1      -0.212  -0.193   1.511  0.00  0.00    +0.000 HD
ENDBRANCH  31  32
ENDBRANCH  28  31
ENDBRANCH  25  28
ENDBRANCH  22  25
ENDBRANCH  19  22
ENDBRANCH   1  19
TORSDOF 13
ENDMDL
MODEL      258
REMARK  Name = ZINC22809341
REMARK  13 active torsions:
REMARK  status: ('A' for Active; 'I' for Inactive)
REMARK    1  A    between atoms: C_1  and  C_2
REMARK    2  A    between atoms: C_5  and  C_11
REMARK    3  A    between atoms: C_7  and  N_8
REMARK    4  A    between atoms: C_11  and  C_13
REMARK    5  A    between atoms: C_13  and  N_22
REMARK    6  A    between atoms: C_14  and  N_15
REMARK    7  A    between atoms: N_15  and  C_16
REMARK    8  A    between atoms: C_16  and  C_17
REMARK    9  A    between atoms: C_17  and  C_18
REMARK   10  A    between atoms: C_18  and  O_19
REMARK   11  A    between atoms: O_19  and  C_20
REMARK   12  A    between atoms: C_26  and  C_28
REMARK   13  A    between atoms: C_28  and  O_29
REMARK                            x       y       z     vdW  Elec       q    Type
REMARK                         _______ _______ _______ _____ _____    ______ ____
ROOT
ATOM      1  C   UNL     1      -3.655   3.032   0.408  0.00  0.00    +0.000 C 
ATOM      2  C   UNL     1      -5.021   3.305   0.423  0.00  0.00    +0.000 C 
ATOM      3  S   UNL     1      -5.590   4.965   0.257  0.00  0.00    +0.000 SA
ENDROOT
BRANCH   1   4
ATOM      4  N   UNL     1      -3.210   1.736   0.538  0.00  0.00    +0.000 N 
ATOM      5  C   UNL     1      -3.533   0.845  -0.390  0.00  0.00    +0.000 A 
ATOM      6  C   UNL     1      -3.104  -0.463  -0.290  0.00  0.00    +0.000 A 
ATOM      7  C   UNL     1      -2.328  -0.840   0.797  0.00  0.00    +0.000 A 
ATOM      8  C   UNL     1      -2.008   0.117   1.749  0.00  0.00    +0.000 A 
ATOM      9  C   UNL     1      -2.465   1.409   1.585  0.00  0.00    +0.000 A 
BRANCH   8  10
ATOM     10  C   UNL     1      -1.166  -0.248   2.944  0.00  0.00    +0.000 C 
BRANCH  10  11
ATOM     11  O   UNL     1       0.214  -0.050   2.633  0.00  0.00    +0.000 OA
ATOM     12  H   UNL     1       0.368   0.899   2.400  0.00  0.00    +0.000 HD
ENDBRANCH  10  11
ENDBRANCH   8  10
ENDBRANCH   1   4
BRANCH   2  13
ATOM     13  N   UNL     1      -5.921   2.285   0.567  0.00  0.00    +0.000 N 
ATOM     14  H   UNL     1      -5.589   1.315   0.664  0.00  0.00    +0.000 HD
BRANCH  13  15
ATOM     15  C   UNL     1      -7.358   2.572   0.583  0.00  0.00    +0.000 C 
BRANCH  15  16
ATOM     16  C   UNL     1      -8.137   1.267   0.755  0.00  0.00    +0.000 C 
BRANCH  16  17
ATOM     17  C   UNL     1      -9.637   1.567   0.771  0.00  0.00    +0.000 C 
BRANCH  17  18
ATOM     18  O   UNL     1     -10.365   0.347   0.932  0.00  0.00    +0.000 OA
ATOM     19  C   UNL     1     -11.784   0.516   0.960  0.00  0.00    +0.000 C 
ENDBRANCH  17  18
ENDBRANCH  16  17
ENDBRANCH  15  16
ENDBRANCH  13  15
ENDBRANCH   2  13
BRANCH   1  20
ATOM     20  C   UNL     1      -2.728   4.083   0.260  0.00  0.00    +0.000 C 
ATOM     21  O   UNL     1      -2.634   4.940   1.122  0.00  0.00    +0.000 OA
BRANCH  20  26
ATOM     22  C   UNL     1       0.617   4.332  -4.418  0.00  0.00    +0.000 C 
ATOM     23  C   UNL     1      -0.258   4.267  -3.193  0.00  0.00    +0.000 A 
ATOM     24  C   UNL     1      -1.260   3.316  -3.112  0.00  0.00    +0.000 A 
ATOM     25  C   UNL     1      -2.069   3.255  -1.997  0.00  0.00    +0.000 A 
ATOM     26  C   UNL     1      -1.867   4.147  -0.943  0.00  0.00    +0.000 A 
ATOM     27  C   UNL     1      -0.855   5.103  -1.030  0.00  0.00    +0.000 A 
ATOM     28  C   UNL     1      -0.057   5.158  -2.154  0.00  0.00    +0.000 A 
BRANCH  28  29
ATOM     29  N   UNL     1       1.018   6.171  -2.248  0.00  0.00    +0.000 N 
ATOM     30  O   UNL     1       1.264   6.888  -1.295  0.00  0.00    +0.000 OA
ATOM     31  O   UNL     1       1.655   6.289  -3.279  0.00  0.00    +0.000 OA
ENDBRANCH  28  29
ENDBRANCH  20  26
ENDBRANCH   1  20
TORSDOF 11
ENDMDL
MODEL      259
REMARK  Name = ZINC05732667
REMARK  13 active torsions:
REMARK  status: ('A' for Active; 'I' for Inactive)
REMARK    1  A    between atoms: C_1  and  C_2
REMARK    2  A    between atoms: C_2  and  C_3
REMARK    3  A    between atoms: C_3  and  C_4
REMARK    4  A    between atoms: C_4  and  C_5
REMARK    5  A    between atoms: C_5  and  C_6
REMARK    6  A    between atoms: C_6  and  N_7
REMARK    7  A    between atoms: N_12  and  C_13
REMARK    8  A    between atoms: C_13  and  C_14
REMARK    9  A    between atoms: C_17  and  N_20
REMARK   10  A    between atoms: N_20  and  O_21
REMARK   11  A    between atoms: N_20  and  O_22
REMARK   12  A    between atoms: N_25  and  C_30
REMARK   13  A    between atoms: N_28  and  C_29
REMARK                            x       y       z     vdW  Elec       q    Type
REMARK                         _______ _______ _______ _____ _____    ______ ____
ROOT
ATOM      1  N   UNL     1      -0.698   1.558   1.213  0.00  0.00    +0.000 N 
ATOM      2  C   UNL     1      -0.209   1.224   2.464  0.00  0.00    +0.000 A 
ATOM      3  N   UNL     1       0.898   0.456   2.701  0.00  0.00    +0.000 N 
ATOM      4  C   UNL     1       1.052   0.359   4.052  0.00  0.00    +0.000 A 
ATOM      5  C   UNL     1       0.009   1.077   4.620  0.00  0.00    +0.000 A 
ATOM      6  N   UNL     1      -0.737   1.587   3.605  0.00  0.00    +0.000 N 
ATOM      7  C   UNL     1      -0.078   1.138   6.079  0.00  0.00    +0.000 A 
ATOM      8  O   UNL     1      -0.976   1.755   6.623  0.00  0.00    +0.000 OA
ATOM      9  N   UNL     1       0.859   0.494   6.808  0.00  0.00    +0.000 N 
ATOM     10  C   UNL     1       1.850  -0.188   6.211  0.00  0.00    +0.000 A 
ATOM     11  O   UNL     1       2.674  -0.754   6.904  0.00  0.00    +0.000 OA
ATOM     12  N   UNL     1       1.963  -0.266   4.873  0.00  0.00    +0.000 N 
ATOM     13  C   UNL     1       3.067  -1.026   4.283  0.00  0.00    +0.000 C 
ATOM     14  C   UNL     1       0.793   0.541   8.271  0.00  0.00    +0.000 C 
ATOM     15  H   UNL     1      -1.545   2.139   1.130  0.00  0.00    +0.000 HD
ATOM     16  H   UNL     1       1.506   0.028   1.987  0.00  0.00    +0.000 HD
ENDROOT
BRANCH   6  17
ATOM     17  C   UNL     1      -1.938   2.412   3.763  0.00  0.00    +0.000 C 
BRANCH  17  18
ATOM     18  C   UNL     1      -3.153   1.523   3.818  0.00  0.00    +0.000 A 
ATOM     19  C   UNL     1      -3.820   1.192   2.652  0.00  0.00    +0.000 A 
ATOM     20  C   UNL     1      -4.931   0.373   2.699  0.00  0.00    +0.000 A 
ATOM     21  C   UNL     1      -5.385  -0.110   3.920  0.00  0.00    +0.000 A 
ATOM     22  C   UNL     1      -4.716   0.229   5.089  0.00  0.00    +0.000 A 
ATOM     23  C   UNL     1      -3.603   1.044   5.035  0.00  0.00    +0.000 A 
BRANCH  21  24
ATOM     24  N   UNL     1      -6.512  -0.934   3.971  0.00  0.00    +0.000 N 
BRANCH  24  25
ATOM     25  O   UNL     1      -6.973  -1.426   5.216  0.00  0.00    +0.000 OA
ATOM     26  H   UNL     1      -7.128  -0.619   5.768  0.00  0.00    +0.000 HD
ENDBRANCH  24  25
BRANCH  24  27
ATOM     27  O   UNL     1      -7.192  -1.278   2.778  0.00  0.00    +0.000 OA
ATOM     28  H   UNL     1      -6.503  -1.694   2.201  0.00  0.00    +0.000 HD
ENDBRANCH  24  27
ENDBRANCH  21  24
ENDBRANCH  17  18
ENDBRANCH   6  17
BRANCH   1  29
ATOM     29  C   UNL     1      -0.013   1.086   0.008  0.00  0.00    +0.000 C 
BRANCH  29  30
ATOM     30  C   UNL     1      -0.753   1.593  -1.232  0.00  0.00    +0.000 C 
BRANCH  30  31
ATOM     31  C   UNL     1      -0.037   1.099  -2.490  0.00  0.00    +0.000 C 
BRANCH  31  32
ATOM     32  C   UNL     1      -0.777   1.606  -3.730  0.00  0.00    +0.000 C 
BRANCH  32  34
ATOM     33  C   UNL     1      -0.800   1.619  -6.228  0.00  0.00    +0.000 C 
ATOM     34  C   UNL     1      -0.060   1.113  -4.989  0.00  0.00    +0.000 C 
ENDBRANCH  32  34
ENDBRANCH  31  32
ENDBRANCH  30  31
ENDBRANCH  29  30
ENDBRANCH   1  29
TORSDOF 10
ENDMDL
MODEL      260
REMARK  Name = ZINC19112092
REMARK  13 active torsions:
REMARK  status: ('A' for Active; 'I' for Inactive)
REMARK    1  A    between atoms: C_1  and  C_2
REMARK    2  A    between atoms: N_4  and  C_5
REMARK    3  A    between atoms: C_8  and  O_27
REMARK    4  A    between atoms: C_9  and  N_11
REMARK    5  A    between atoms: C_12  and  C_14
REMARK    6  A    between atoms: C_14  and  S_15
REMARK    7  A    between atoms: S_15  and  C_16
REMARK    8  A    between atoms: N_21  and  C_22
REMARK    9  A    between atoms: C_22  and  C_23
REMARK   10  A    between atoms: C_23  and  C_24
REMARK   11  A    between atoms: C_24  and  O_25
REMARK   12  A    between atoms: O_25  and  C_26
REMARK   13  A    between atoms: O_27  and  C_28
REMARK                            x       y       z     vdW  Elec       q    Type
REMARK                         _______ _______ _______ _____ _____    ______ ____
ROOT
ATOM      1  N   UNL     1       1.473   7.354   3.425  0.00  0.00    +0.000 N 
ATOM      2  C   UNL     1       1.443   6.331   2.548  0.00  0.00    +0.000 C 
ATOM      3  O   UNL     1       2.205   6.318   1.605  0.00  0.00    +0.000 OA
ATOM      4  H   UNL     1       0.780   7.401   4.185  0.00  0.00    +0.000 HD
ENDROOT
BRANCH   1   9
ATOM      5  C   UNL     1       3.850   9.737   1.930  0.00  0.00    +0.000 A 
ATOM      6  C   UNL     1       4.380  10.330   3.069  0.00  0.00    +0.000 A 
ATOM      7  C   UNL     1       3.947   9.936   4.320  0.00  0.00    +0.000 A 
ATOM      8  C   UNL     1       2.979   8.953   4.443  0.00  0.00    +0.000 A 
ATOM      9  C   UNL     1       2.449   8.352   3.303  0.00  0.00    +0.000 A 
ATOM     10  C   UNL     1       2.884   8.748   2.048  0.00  0.00    +0.000 A 
BRANCH   5  14
ATOM     11  C   UNL     1       5.383  11.766  -0.846  0.00  0.00    +0.000 C 
ATOM     12  C   UNL     1       4.788  11.378   0.483  0.00  0.00    +0.000 C 
ATOM     13  O   UNL     1       4.757  12.181   1.391  0.00  0.00    +0.000 OA
ATOM     14  N   UNL     1       4.290  10.139   0.662  0.00  0.00    +0.000 N 
ATOM     15  H   UNL     1       4.234   9.486  -0.133  0.00  0.00    +0.000 HD
ENDBRANCH   5  14
BRANCH   8  16
ATOM     16  O   UNL     1       2.549   8.570   5.676  0.00  0.00    +0.000 OA
ATOM     17  C   UNL     1       3.136   9.228   6.800  0.00  0.00    +0.000 C 
ENDBRANCH   8  16
ENDBRANCH   1   9
BRANCH   2  18
ATOM     18  C   UNL     1       0.462   5.203   2.740  0.00  0.00    +0.000 C 
BRANCH  18  19
ATOM     19  S   UNL     1       0.665   3.993   1.409  0.00  0.00    +0.000 S 
BRANCH  19  20
ATOM     20  C   UNL     1      -0.567   2.821   1.869  0.00  0.00    +0.000 A 
ATOM     21  N   UNL     1      -1.352   2.912   2.904  0.00  0.00    +0.000 NA
ATOM     22  N   UNL     1      -2.180   1.781   2.921  0.00  0.00    +0.000 N 
ATOM     23  C   UNL     1      -1.854   1.026   1.851  0.00  0.00    +0.000 A 
ATOM     24  O   UNL     1      -2.363  -0.035   1.537  0.00  0.00    +0.000 OA
ATOM     25  N   UNL     1      -0.863   1.660   1.193  0.00  0.00    +0.000 N 
ATOM     26  H   UNL     1      -2.904   1.565   3.621  0.00  0.00    +0.000 HD
BRANCH  25  27
ATOM     27  C   UNL     1      -0.208   1.189  -0.030  0.00  0.00    +0.000 C 
BRANCH  27  28
ATOM     28  C   UNL     1      -0.957   1.730  -1.250  0.00  0.00    +0.000 C 
BRANCH  28  29
ATOM     29  C   UNL     1      -0.273   1.238  -2.527  0.00  0.00    +0.000 C 
BRANCH  29  30
ATOM     30  O   UNL     1      -0.973   1.743  -3.667  0.00  0.00    +0.000 OA
ATOM     31  C   UNL     1      -0.413   1.340  -4.918  0.00  0.00    +0.000 C 
ENDBRANCH  29  30
ENDBRANCH  28  29
ENDBRANCH  27  28
ENDBRANCH  25  27
ENDBRANCH  19  20
ENDBRANCH  18  19
ENDBRANCH   2  18
TORSDOF 10
ENDMDL
MODEL      261
REMARK  Name = ZINC17379574
REMARK  13 active torsions:
REMARK  status: ('A' for Active; 'I' for Inactive)
REMARK    1  A    between atoms: C_1  and  N_2
REMARK    2  A    between atoms: N_2  and  C_3
REMARK    3  A    between atoms: C_3  and  N_5
REMARK    4  A    between atoms: N_5  and  N_6
REMARK    5  A    between atoms: C_7  and  C_8
REMARK    6  A    between atoms: C_8  and  N_9
REMARK    7  A    between atoms: C_11  and  N_25
REMARK    8  A    between atoms: N_14  and  C_17
REMARK    9  A    between atoms: C_17  and  C_18
REMARK   10  A    between atoms: N_19  and  N_20
REMARK   11  A    between atoms: N_20  and  C_21
REMARK   12  A    between atoms: C_21  and  N_23
REMARK   13  A    between atoms: N_23  and  C_24
REMARK                            x       y       z     vdW  Elec       q    Type
REMARK                         _______ _______ _______ _____ _____    ______ ____
ROOT
ATOM      1  N   UNL     1       1.196  -2.074  -0.062  0.00  0.00    +0.000 N 
ATOM      2  C   UNL     1       1.201  -0.706  -0.087  0.00  0.00    +0.000 A 
ATOM      3  C   UNL     1       0.030  -0.034  -0.099  0.00  0.00    +0.000 A 
ATOM      4  C   UNL     1      -1.183  -0.763  -0.081  0.00  0.00    +0.000 A 
ATOM      5  O   UNL     1      -2.251  -0.178  -0.086  0.00  0.00    +0.000 OA
ATOM      6  N   UNL     1      -1.145  -2.111  -0.062  0.00  0.00    +0.000 N 
ATOM      7  C   UNL     1       0.036  -2.756  -0.050  0.00  0.00    +0.000 A 
ATOM      8  O   UNL     1       0.055  -3.971  -0.029  0.00  0.00    +0.000 OA
ENDROOT
BRANCH   3   9
ATOM      9  N   UNL     1       0.016   1.446  -0.126  0.00  0.00    +0.000 N 
ATOM     10  O   UNL     1       1.065   2.065  -0.137  0.00  0.00    +0.000 OA
ATOM     11  O   UNL     1      -1.045   2.045  -0.142  0.00  0.00    +0.000 OA
ENDBRANCH   3   9
BRANCH   1  12
ATOM     12  C   UNL     1       2.467  -2.804  -0.049  0.00  0.00    +0.000 C 
BRANCH  12  14
ATOM     13  N   UNL     1       4.059  -2.637   1.762  0.00  0.00    +0.000 NA
ATOM     14  C   UNL     1       2.902  -3.028   1.377  0.00  0.00    +0.000 C 
BRANCH  13  15
ATOM     15  N   UNL     1       4.867  -1.887   0.898  0.00  0.00    +0.000 N 
ATOM     16  H   UNL     1       4.500  -1.579  -0.014  0.00  0.00    +0.000 HD
BRANCH  15  17
ATOM     17  C   UNL     1       6.126  -1.567   1.261  0.00  0.00    +0.000 C 
ATOM     18  S   UNL     1       7.114  -0.651   0.206  0.00  0.00    +0.000 S 
BRANCH  17  20
ATOM     19  C   UNL     1       7.973  -1.623   2.848  0.00  0.00    +0.000 C 
ATOM     20  N   UNL     1       6.606  -1.970   2.454  0.00  0.00    +0.000 N 
ATOM     21  H   UNL     1       6.011  -2.521   3.089  0.00  0.00    +0.000 HD
ENDBRANCH  17  20
ENDBRANCH  15  17
ENDBRANCH  13  15
ENDBRANCH  12  14
ENDBRANCH   1  12
BRANCH   6  22
ATOM     22  C   UNL     1      -2.394  -2.876  -0.048  0.00  0.00    +0.000 C 
BRANCH  22  23
ATOM     23  C   UNL     1      -2.823  -3.112   1.377  0.00  0.00    +0.000 C 
ATOM     24  N   UNL     1      -3.990  -2.756   1.762  0.00  0.00    +0.000 NA
BRANCH  24  25
ATOM     25  N   UNL     1      -4.389  -2.976   3.087  0.00  0.00    +0.000 N 
ATOM     26  H   UNL     1      -3.742  -3.425   3.751  0.00  0.00    +0.000 HD
BRANCH  25  27
ATOM     27  C   UNL     1      -5.618  -2.600   3.492  0.00  0.00    +0.000 C 
ATOM     28  S   UNL     1      -6.105  -2.869   5.111  0.00  0.00    +0.000 S 
BRANCH  27  29
ATOM     29  N   UNL     1      -6.464  -2.013   2.623  0.00  0.00    +0.000 N 
ATOM     30  C   UNL     1      -7.800  -1.605   3.063  0.00  0.00    +0.000 C 
ATOM     31  H   UNL     1      -6.171  -1.851   1.649  0.00  0.00    +0.000 HD
ENDBRANCH  27  29
ENDBRANCH  25  27
ENDBRANCH  24  25
ENDBRANCH  22  23
ENDBRANCH   6  22
TORSDOF 11
ENDMDL
MODEL      262
REMARK  Name = ZINC29722816
REMARK  11 active torsions:
REMARK  status: ('A' for Active; 'I' for Inactive)
REMARK    1  A    between atoms: C_1  and  S_2
REMARK    2  A    between atoms: S_2  and  N_5
REMARK    3  A    between atoms: N_5  and  C_6
REMARK    4  A    between atoms: C_6  and  C_7
REMARK    5  A    between atoms: C_7  and  N_8
REMARK    6  A    between atoms: N_11  and  C_12
REMARK    7  A    between atoms: C_12  and  C_13
REMARK    8  A    between atoms: C_13  and  N_14
REMARK    9  A    between atoms: N_14  and  C_15
REMARK   10  A    between atoms: C_18  and  C_24
REMARK   11  A    between atoms: C_20  and  N_21
REMARK                            x       y       z     vdW  Elec       q    Type
REMARK                         _______ _______ _______ _____ _____    ______ ____
ROOT
ATOM      1  C   UNL     1      -3.854   3.315   4.995  0.00  0.00    +0.000 C 
ENDROOT
BRANCH   1   2
ATOM      2  N   UNL     1      -2.406   3.168   4.827  0.00  0.00    +0.000 N 
ATOM      3  H   UNL     1      -1.773   3.376   5.612  0.00  0.00    +0.000 HD
BRANCH   2   4
ATOM      4  C   UNL     1      -1.885   2.746   3.602  0.00  0.00    +0.000 A 
ATOM      5  C   UNL     1      -2.726   2.580   2.508  0.00  0.00    +0.000 A 
ATOM      6  C   UNL     1      -2.207   2.167   1.296  0.00  0.00    +0.000 A 
ATOM      7  C   UNL     1      -0.854   1.908   1.175  0.00  0.00    +0.000 A 
ATOM      8  C   UNL     1      -0.014   2.072   2.261  0.00  0.00    +0.000 A 
ATOM      9  C   UNL     1      -0.526   2.490   3.474  0.00  0.00    +0.000 A 
BRANCH   7  10
ATOM     10  C   UNL     1      -0.292   1.452  -0.147  0.00  0.00    +0.000 C 
ATOM     11  F   UNL     1      -0.321   0.054  -0.209  0.00  0.00    +0.000 F 
ATOM     12  F   UNL     1       1.029   1.896  -0.271  0.00  0.00    +0.000 F 
ATOM     13  F   UNL     1      -1.061   1.981  -1.189  0.00  0.00    +0.000 F 
ENDBRANCH   7  10
BRANCH   9  14
ATOM     14  N   UNL     1       0.373   2.665   4.637  0.00  0.00    +0.000 N 
ATOM     15  O   UNL     1       1.542   2.336   4.557  0.00  0.00    +0.000 OA
ATOM     16  O   UNL     1      -0.057   3.139   5.673  0.00  0.00    +0.000 OA
ENDBRANCH   9  14
ENDBRANCH   2   4
ENDBRANCH   1   2
BRANCH   1  17
ATOM     17  C   UNL     1      -4.157   3.787   6.419  0.00  0.00    +0.000 C 
BRANCH  17  21
ATOM     18  N   UNL     1      -7.439   4.477   7.926  0.00  0.00    +0.000 N 
ATOM     19  C   UNL     1      -6.107   4.341   7.770  0.00  0.00    +0.000 C 
ATOM     20  O   UNL     1      -5.359   4.587   8.697  0.00  0.00    +0.000 OA
ATOM     21  N   UNL     1      -5.604   3.934   6.588  0.00  0.00    +0.000 N 
ATOM     22  H   UNL     1      -8.073   4.269   7.141  0.00  0.00    +0.000 HD
ATOM     23  H   UNL     1      -6.238   3.726   5.803  0.00  0.00    +0.000 HD
BRANCH  18  24
ATOM     24  C   UNL     1      -7.985   4.920   9.210  0.00  0.00    +0.000 C 
BRANCH  24  25
ATOM     25  C   UNL     1      -9.511   4.989   9.119  0.00  0.00    +0.000 C 
BRANCH  25  26
ATOM     26  N   UNL     1     -10.057   5.432  10.404  0.00  0.00    +0.000 NA
ATOM     27  H   UNL     1      -9.466   5.419  11.248  0.00  0.00    +0.000 HD
BRANCH  26  29
ATOM     28  C   UNL     1     -12.629   4.494  10.113  0.00  0.00    +0.000 C 
ATOM     29  S   UNL     1     -11.626   5.955  10.501  0.00  0.00    +0.000 S 
ATOM     30  O   UNL     1     -11.802   6.322  11.863  0.00  0.00    +0.000 OA
ATOM     31  O   UNL     1     -11.750   6.922   9.468  0.00  0.00    +0.000 OA
ENDBRANCH  26  29
ENDBRANCH  25  26
ENDBRANCH  24  25
ENDBRANCH  18  24
ENDBRANCH  17  21
ENDBRANCH   1  17
TORSDOF 10
ENDMDL
MODEL      263
REMARK  Name = ZINC18376414
REMARK  16 active torsions:
REMARK  status: ('A' for Active; 'I' for Inactive)
REMARK    1  A    between atoms: C_1  and  C_2
REMARK    2  A    between atoms: C_2  and  C_3
REMARK    3  A    between atoms: C_2  and  C_4
REMARK    4  A    between atoms: C_2  and  O_5
REMARK    5  A    between atoms: O_5  and  C_6
REMARK    6  A    between atoms: N_8  and  C_9
REMARK    7  A    between atoms: C_9  and  C_10
REMARK    8  A    between atoms: C_10  and  C_11
REMARK    9  A    between atoms: C_11  and  C_12
REMARK   10  A    between atoms: C_12  and  O_14
REMARK   11  A    between atoms: O_14  and  C_15
REMARK   12  A    between atoms: C_15  and  C_16
REMARK   13  A    between atoms: N_18  and  N_19
REMARK   14  A    between atoms: C_20  and  C_22
REMARK   15  A    between atoms: C_25  and  O_28
REMARK   16  A    between atoms: O_28  and  C_29
REMARK                            x       y       z     vdW  Elec       q    Type
REMARK                         _______ _______ _______ _____ _____    ______ ____
ROOT
ATOM      1  C   UNL     1       4.839   1.171  -0.038  0.00  0.00    +0.000 C 
ENDROOT
BRANCH   1   2
ATOM      2  C   UNL     1       3.524   1.907  -0.021  0.00  0.00    +0.000 C 
ATOM      3  O   UNL     1       3.508   3.120  -0.015  0.00  0.00    +0.000 OA
ATOM      4  N   UNL     1       2.366   1.217  -0.014  0.00  0.00    +0.000 N 
ATOM      5  H   UNL     1       2.380   0.188  -0.020  0.00  0.00    +0.000 HD
BRANCH   4   6
ATOM      6  N   UNL     1       1.143   1.901   0.001  0.00  0.00    +0.000 N 
ATOM      7  C   UNL     1      -0.014   1.212   0.009  0.00  0.00    +0.000 C 
ATOM      8  O   UNL     1       0.002  -0.004   0.002  0.00  0.00    +0.000 OA
ATOM      9  H   UNL     1       1.129   2.931   0.007  0.00  0.00    +0.000 HD
BRANCH   7  10
ATOM     10  C   UNL     1      -1.303   1.932   0.019  0.00  0.00    +0.000 A 
ATOM     11  C   UNL     1      -1.324   3.329   0.032  0.00  0.00    +0.000 A 
ATOM     12  C   UNL     1      -2.527   3.998   0.037  0.00  0.00    +0.000 A 
ATOM     13  C   UNL     1      -3.721   3.285   0.039  0.00  0.00    +0.000 A 
ATOM     14  C   UNL     1      -3.704   1.895   0.030  0.00  0.00    +0.000 A 
ATOM     15  C   UNL     1      -2.504   1.219   0.021  0.00  0.00    +0.000 A 
BRANCH  13  16
ATOM     16  O   UNL     1      -4.905   3.947   0.049  0.00  0.00    +0.000 OA
ATOM     17  C   UNL     1      -4.849   5.375   0.057  0.00  0.00    +0.000 C 
ENDBRANCH  13  16
ENDBRANCH   7  10
ENDBRANCH   4   6
ENDBRANCH   1   2
BRANCH   1  18
ATOM     18  O   UNL     1       5.930   2.130  -0.043  0.00  0.00    +0.000 OA
BRANCH  18  19
ATOM     19  C   UNL     1       7.177   1.634  -0.058  0.00  0.00    +0.000 C 
ATOM     20  O   UNL     1       7.351   0.438  -0.066  0.00  0.00    +0.000 OA
BRANCH  19  21
ATOM     21  C   UNL     1       8.360   2.568  -0.064  0.00  0.00    +0.000 C 
BRANCH  21  22
ATOM     22  C   UNL     1       9.654   1.752  -0.081  0.00  0.00    +0.000 C 
BRANCH  22  23
ATOM     23  C   UNL     1      10.854   2.701  -0.087  0.00  0.00    +0.000 C 
BRANCH  23  26
ATOM     24  C   UNL     1      13.286   2.548  -0.111  0.00  0.00    +0.000 C 
ATOM     25  O   UNL     1      13.333   3.762  -0.105  0.00  0.00    +0.000 OA
ATOM     26  N   UNL     1      12.094   1.920  -0.103  0.00  0.00    +0.000 N 
ATOM     27  H   UNL     1      12.054   0.890  -0.108  0.00  0.00    +0.000 HD
BRANCH  24  28
ATOM     28  O   UNL     1      14.425   1.830  -0.126  0.00  0.00    +0.000 OA
BRANCH  28  30
ATOM     29  C   UNL     1      15.754   3.447   1.119  0.00  0.00    +0.000 C 
ATOM     30  C   UNL     1      15.672   2.573  -0.134  0.00  0.00    +0.000 C 
ATOM     31  C   UNL     1      16.849   1.595  -0.150  0.00  0.00    +0.000 C 
ATOM     32  C   UNL     1      15.730   3.460  -1.379  0.00  0.00    +0.000 C 
ENDBRANCH  28  30
ENDBRANCH  24  28
ENDBRANCH  23  26
ENDBRANCH  22  23
ENDBRANCH  21  22
ENDBRANCH  19  21
ENDBRANCH  18  19
ENDBRANCH   1  18
TORSDOF 12
ENDMDL
MODEL      264
REMARK  Name = ZINC28036494
REMARK  16 active torsions:
REMARK  status: ('A' for Active; 'I' for Inactive)
REMARK    1  A    between atoms: C_1  and  C_2
REMARK    2  A    between atoms: C_2  and  O_3
REMARK    3  A    between atoms: O_3  and  C_4
REMARK    4  A    between atoms: C_4  and  C_6
REMARK    5  A    between atoms: C_7  and  C_14
REMARK    6  A    between atoms: C_12  and  C_13
REMARK    7  A    between atoms: C_14  and  S_15
REMARK    8  A    between atoms: S_15  and  C_16
REMARK    9  A    between atoms: C_16  and  C_17
REMARK   10  A    between atoms: C_17  and  O_19
REMARK   11  A    between atoms: O_19  and  C_20
REMARK   12  A    between atoms: C_20  and  C_21
REMARK   13  A    between atoms: C_21  and  C_23
REMARK   14  A    between atoms: C_23  and  C_27
REMARK   15  A    between atoms: C_24  and  C_25
REMARK   16  A    between atoms: C_24  and  N_26
REMARK                            x       y       z     vdW  Elec       q    Type
REMARK                         _______ _______ _______ _____ _____    ______ ____
ROOT
ATOM      1  C   UNL     1       3.005   2.364   0.675  0.00  0.00    +0.000 C 
ENDROOT
BRANCH   1   3
ATOM      2  C   UNL     1       1.037   1.202  -0.260  0.00  0.00    +0.000 C 
ATOM      3  C   UNL     1       1.594   1.847   0.788  0.00  0.00    +0.000 C 
ATOM      4  N   UNL     1       0.899   2.038   1.948  0.00  0.00    +0.000 N 
ATOM      5  C   UNL     1      -0.357   1.615   2.140  0.00  0.00    +0.000 C 
ATOM      6  O   UNL     1      -0.893   1.832   3.209  0.00  0.00    +0.000 OA
ATOM      7  N   UNL     1      -1.045   0.955   1.187  0.00  0.00    +0.000 N 
ATOM      8  C   UNL     1      -0.384   0.699  -0.104  0.00  0.00    +0.000 C 
ATOM      9  C   UNL     1      -0.377  -0.813  -0.338  0.00  0.00    +0.000 C 
ATOM     10  H   UNL     1       1.368   2.535   2.719  0.00  0.00    +0.000 HD
ATOM     11  H   UNL     1      -2.010   0.638   1.357  0.00  0.00    +0.000 HD
BRANCH   2  12
ATOM     12  C   UNL     1       1.755   1.004  -1.462  0.00  0.00    +0.000 C 
ATOM     13  O   UNL     1       1.503   1.683  -2.440  0.00  0.00    +0.000 OA
BRANCH  12  14
ATOM     14  O   UNL     1       2.720   0.063  -1.525  0.00  0.00    +0.000 OA
BRANCH  14  16
ATOM     15  C   UNL     1       4.455  -1.188  -2.649  0.00  0.00    +0.000 C 
ATOM     16  C   UNL     1       3.405  -0.082  -2.771  0.00  0.00    +0.000 C 
ENDBRANCH  14  16
ENDBRANCH  12  14
ENDBRANCH   2  12
ENDBRANCH   1   3
BRANCH   1  17
ATOM     17  S   UNL     1       2.973   4.163   0.452  0.00  0.00    +0.000 S 
BRANCH  17  18
ATOM     18  C   UNL     1       4.725   4.622   0.335  0.00  0.00    +0.000 C 
BRANCH  18  19
ATOM     19  C   UNL     1       4.842   6.112   0.145  0.00  0.00    +0.000 C 
ATOM     20  O   UNL     1       3.846   6.795   0.093  0.00  0.00    +0.000 OA
BRANCH  19  21
ATOM     21  O   UNL     1       6.053   6.681   0.032  0.00  0.00    +0.000 OA
BRANCH  21  22
ATOM     22  C   UNL     1       6.090   8.122  -0.149  0.00  0.00    +0.000 C 
BRANCH  22  23
ATOM     23  C   UNL     1       7.522   8.578  -0.255  0.00  0.00    +0.000 C 
ATOM     24  O   UNL     1       8.424   7.768  -0.184  0.00  0.00    +0.000 OA
BRANCH  23  25
ATOM     25  C   UNL     1       7.816   9.951  -0.436  0.00  0.00    +0.000 C 
ATOM     26  C   UNL     1       9.123  10.357  -0.643  0.00  0.00    +0.000 C 
ATOM     27  C   UNL     1      10.247   9.358  -0.542  0.00  0.00    +0.000 C 
BRANCH  26  28
ATOM     28  N   UNL     1       9.390  11.646  -0.936  0.00  0.00    +0.000 N 
ATOM     29  H   UNL     1       8.621  12.329  -1.005  0.00  0.00    +0.000 HD
ATOM     30  H   UNL     1      10.362  11.949  -1.090  0.00  0.00    +0.000 HD
ENDBRANCH  26  28
BRANCH  25  31
ATOM     31  C   UNL     1       6.762  10.919  -0.405  0.00  0.00    +0.000 C 
ATOM     32  N   UNL     1       5.925  11.687  -0.381  0.00  0.00    +0.000 NA
ENDBRANCH  25  31
ENDBRANCH  23  25
ENDBRANCH  22  23
ENDBRANCH  21  22
ENDBRANCH  19  21
ENDBRANCH  18  19
ENDBRANCH  17  18
ENDBRANCH   1  17
TORSDOF 13
ENDMDL
MODEL      265
REMARK  Name = ZINC17157078
REMARK  14 active torsions:
REMARK  status: ('A' for Active; 'I' for Inactive)
REMARK    1  A    between atoms: C_1  and  C_2
REMARK    2  A    between atoms: C_2  and  O_4
REMARK    3  A    between atoms: O_4  and  C_5
REMARK    4  A    between atoms: C_5  and  C_6
REMARK    5  A    between atoms: C_7  and  O_25
REMARK    6  A    between atoms: C_8  and  O_21
REMARK    7  A    between atoms: C_9  and  N_29
REMARK    8  A    between atoms: C_10  and  N_12
REMARK    9  A    between atoms: C_15  and  O_19
REMARK   10  A    between atoms: O_19  and  C_20
REMARK   11  A    between atoms: O_21  and  C_22
REMARK   12  A    between atoms: C_22  and  C_24
REMARK   13  A    between atoms: O_25  and  C_26
REMARK   14  A    between atoms: C_26  and  C_28
REMARK                            x       y       z     vdW  Elec       q    Type
REMARK                         _______ _______ _______ _____ _____    ______ ____
ROOT
ATOM      1  C   UNL     1      -2.217   5.583   0.980  0.00  0.00    +0.000 C 
ATOM      2  C   UNL     1      -1.675   6.079   2.323  0.00  0.00    +0.000 C 
ATOM      3  C   UNL     1      -0.249   5.553   2.515  0.00  0.00    +0.000 C 
ATOM      4  C   UNL     1       0.615   6.009   1.335  0.00  0.00    +0.000 C 
ATOM      5  C   UNL     1      -0.016   5.516   0.030  0.00  0.00    +0.000 C 
ATOM      6  O   UNL     1      -1.351   6.016  -0.071  0.00  0.00    +0.000 OA
ENDROOT
BRANCH   5   7
ATOM      7  N   UNL     1      -0.041   4.051   0.023  0.00  0.00    +0.000 N 
ATOM      8  C   UNL     1       0.997   3.352   0.561  0.00  0.00    +0.000 A 
ATOM      9  C   UNL     1       0.959   1.998   0.552  0.00  0.00    +0.000 A 
ATOM     10  C   UNL     1      -0.150   1.350  -0.022  0.00  0.00    +0.000 A 
ATOM     11  N   UNL     1      -1.138   2.070  -0.533  0.00  0.00    +0.000 NA
ATOM     12  C   UNL     1      -1.090   3.401  -0.514  0.00  0.00    +0.000 A 
ATOM     13  O   UNL     1      -2.012   4.042  -0.991  0.00  0.00    +0.000 OA
BRANCH  10  14
ATOM     14  O   UNL     1      -0.211  -0.000  -0.048  0.00  0.00    +0.000 OA
ATOM     15  C   UNL     1      -1.371  -0.587  -0.641  0.00  0.00    +0.000 C 
ENDBRANCH  10  14
ENDBRANCH   5   7
BRANCH   4  16
ATOM     16  N   UNL     1       0.703   7.480   1.341  0.00  0.00    +0.000 N 
ATOM     17  H   UNL     1       1.132   7.798   2.222  0.00  0.00    +0.000 HD
ATOM     18  H   UNL     1      -0.239   7.885   1.252  0.00  0.00    +0.000 HD
ATOM     19  H   UNL     1       1.284   7.790   0.549  0.00  0.00    +0.000 HD
ENDBRANCH   4  16
BRANCH   3  20
ATOM     20  O   UNL     1      -0.270   4.102   2.570  0.00  0.00    +0.000 OA
BRANCH  20  21
ATOM     21  C   UNL     1       0.684   3.506   3.303  0.00  0.00    +0.000 C 
ATOM     22  O   UNL     1       1.509   4.175   3.879  0.00  0.00    +0.000 OA
ATOM     23  C   UNL     1       0.726   2.003   3.406  0.00  0.00    +0.000 C 
ENDBRANCH  20  21
ENDBRANCH   3  20
BRANCH   2  24
ATOM     24  O   UNL     1      -2.520   5.592   3.398  0.00  0.00    +0.000 OA
BRANCH  24  25
ATOM     25  C   UNL     1      -3.550   6.372   3.765  0.00  0.00    +0.000 C 
ATOM     26  O   UNL     1      -3.737   7.426   3.207  0.00  0.00    +0.000 OA
ATOM     27  C   UNL     1      -4.471   5.931   4.873  0.00  0.00    +0.000 C 
ENDBRANCH  24  25
ENDBRANCH   2  24
BRANCH   1  28
ATOM     28  C   UNL     1      -3.618   6.154   0.754  0.00  0.00    +0.000 C 
BRANCH  28  29
ATOM     29  O   UNL     1      -4.180   5.590  -0.461  0.00  0.00    +0.000 OA
BRANCH  29  31
ATOM     30  C   UNL     1      -6.062   5.449  -2.053  0.00  0.00    +0.000 C 
ATOM     31  C   UNL     1      -5.414   5.991  -0.804  0.00  0.00    +0.000 C 
ATOM     32  O   UNL     1      -6.006   6.786  -0.113  0.00  0.00    +0.000 OA
ENDBRANCH  29  31
ENDBRANCH  28  29
ENDBRANCH   1  28
TORSDOF 10
ENDMDL
MODEL      266
REMARK  Name = ZINC14953235
REMARK  10 active torsions:
REMARK  status: ('A' for Active; 'I' for Inactive)
REMARK    1  A    between atoms: C_1  and  C_2
REMARK    2  A    between atoms: C_2  and  O_3
REMARK    3  A    between atoms: O_3  and  C_4
REMARK    4  A    between atoms: C_6  and  CA_17
REMARK    5  A    between atoms: C_8  and  O_10
REMARK    6  A    between atoms: O_10  and  C_11
REMARK    7  A    between atoms: CA_17  and  C_18
REMARK    8  A    between atoms: CA_17  and  N_20
REMARK    9  A    between atoms: N_20  and  C_21
REMARK   10  A    between atoms: C_24  and  C_27
REMARK                            x       y       z     vdW  Elec       q    Type
REMARK                         _______ _______ _______ _____ _____    ______ ____
ROOT
ATOM      1  CA  UNL     1      -2.860   3.197   1.061  0.00  0.00    +0.000 C 
ENDROOT
BRANCH   1   4
ATOM      2  C   UNL     1      -1.152   6.569   1.080  0.00  0.00    +0.000 A 
ATOM      3  C   UNL     1      -2.137   5.592   1.108  0.00  0.00    +0.000 A 
ATOM      4  C   UNL     1      -1.789   4.257   1.038  0.00  0.00    +0.000 A 
ATOM      5  C   UNL     1      -0.459   3.891   0.951  0.00  0.00    +0.000 A 
ATOM      6  C   UNL     1       0.529   4.864   0.923  0.00  0.00    +0.000 A 
ATOM      7  C   UNL     1       0.182   6.205   0.988  0.00  0.00    +0.000 A 
BRANCH   6   8
ATOM      8  O   UNL     1       1.837   4.504   0.832  0.00  0.00    +0.000 OA
BRANCH   8   9
ATOM      9  C   UNL     1       2.115   3.115   0.647  0.00  0.00    +0.000 C 
ATOM     10  C   UNL     1       2.143   2.412   2.008  0.00  0.00    +0.000 C 
ATOM     11  C   UNL     1       2.522   0.943   1.807  0.00  0.00    +0.000 C 
ATOM     12  O   UNL     1       3.786   0.862   1.145  0.00  0.00    +0.000 OA
ATOM     13  C   UNL     1       3.805   1.461  -0.152  0.00  0.00    +0.000 C 
ATOM     14  C   UNL     1       3.480   2.952  -0.030  0.00  0.00    +0.000 C 
ENDBRANCH   8   9
ENDBRANCH   6   8
BRANCH   2  15
ATOM     15  O   UNL     1      -1.496   7.883   1.143  0.00  0.00    +0.000 OA
BRANCH  15  17
ATOM     16  C   UNL     1      -1.008  10.249   1.189  0.00  0.00    +0.000 C 
ATOM     17  C   UNL     1      -0.430   8.834   1.109  0.00  0.00    +0.000 C 
ENDBRANCH  15  17
ENDBRANCH   2  15
ENDBRANCH   1   4
BRANCH   1  18
ATOM     18  C   UNL     1      -3.468   3.067  -0.312  0.00  0.00    +0.000 C 
ATOM     19  O   UNL     1      -4.649   3.269  -0.471  0.00  0.00    +0.000 OA
ATOM     20  OXT UNL     1      -2.698   2.726  -1.357  0.00  0.00    +0.000 OA
ENDBRANCH   1  18
BRANCH   1  21
ATOM     21  N   UNL     1      -3.900   3.576   2.022  0.00  0.00    +0.000 N 
ATOM     22  H   UNL     1      -4.044   4.567   2.260  0.00  0.00    +0.000 HD
BRANCH  21  23
ATOM     23  C   UNL     1      -4.693   2.595   2.612  0.00  0.00    +0.000 A 
ATOM     24  C   UNL     1      -4.500   1.256   2.284  0.00  0.00    +0.000 A 
ATOM     25  C   UNL     1      -5.280   0.284   2.871  0.00  0.00    +0.000 A 
ATOM     26  C   UNL     1      -6.271   0.643   3.786  0.00  0.00    +0.000 A 
ATOM     27  C   UNL     1      -6.465   1.988   4.109  0.00  0.00    +0.000 A 
ATOM     28  C   UNL     1      -5.680   2.956   3.524  0.00  0.00    +0.000 A 
BRANCH  26  29
ATOM     29  C   UNL     1      -7.112  -0.398   4.413  0.00  0.00    +0.000 C 
ATOM     30  N   UNL     1      -6.919  -1.725   4.094  0.00  0.00    +0.000 N 
ATOM     31  N   UNL     1      -8.034   0.009   5.274  0.00  0.00    +0.000 N 
ATOM     32  H   UNL     1      -6.188  -1.991   3.418  0.00  0.00    +0.000 HD
ATOM     33  H   UNL     1      -7.505  -2.451   4.531  0.00  0.00    +0.000 HD
ATOM     34  H   UNL     1      -8.170   1.003   5.505  0.00  0.00    +0.000 HD
ATOM     35  H   UNL     1      -8.632  -0.700   5.723  0.00  0.00    +0.000 HD
ENDBRANCH  26  29
ENDBRANCH  21  23
ENDBRANCH   1  21
TORSDOF 9
ENDMDL
MODEL      267
REMARK  Name = ZINC29147988
REMARK  15 active torsions:
REMARK  status: ('A' for Active; 'I' for Inactive)
REMARK    1  A    between atoms: C_1  and  C_2
REMARK    2  A    between atoms: C_2  and  C_3
REMARK    3  A    between atoms: C_3  and  C_4
REMARK    4  A    between atoms: C_4  and  N_5
REMARK    5  A    between atoms: C_9  and  S_25
REMARK    6  A    between atoms: C_13  and  C_14
REMARK    7  A    between atoms: C_14  and  N_15
REMARK    8  A    between atoms: N_15  and  C_16
REMARK    9  A    between atoms: N_15  and  C_17
REMARK   10  A    between atoms: C_17  and  C_18
REMARK   11  A    between atoms: N_20  and  C_21
REMARK   12  A    between atoms: C_21  and  C_22
REMARK   13  A    between atoms: C_22  and  O_23
REMARK   14  A    between atoms: O_23  and  C_24
REMARK   15  A    between atoms: S_25  and  N_28
REMARK                            x       y       z     vdW  Elec       q    Type
REMARK                         _______ _______ _______ _____ _____    ______ ____
ROOT
ATOM      1  N   UNL     1       1.306  -1.080  -0.123  0.00  0.00    +0.000 N 
ATOM      2  C   UNL     1       2.376  -0.207  -0.110  0.00  0.00    +0.000 A 
ATOM      3  C   UNL     1       3.753  -0.366  -0.184  0.00  0.00    +0.000 A 
ATOM      4  C   UNL     1       4.571   0.743  -0.144  0.00  0.00    +0.000 A 
ATOM      5  C   UNL     1       4.027   2.015  -0.029  0.00  0.00    +0.000 A 
ATOM      6  C   UNL     1       2.674   2.189   0.045  0.00  0.00    +0.000 A 
ATOM      7  C   UNL     1       1.826   1.080   0.005  0.00  0.00    +0.000 A 
ATOM      8  N   UNL     1       0.477   0.930   0.056  0.00  0.00    +0.000 NA
ATOM      9  C   UNL     1       0.174  -0.333  -0.019  0.00  0.00    +0.000 A 
ENDROOT
BRANCH   5  10
ATOM     10  S   UNL     1       5.092   3.418   0.020  0.00  0.00    +0.000 S 
ATOM     11  O   UNL     1       4.372   4.451   0.679  0.00  0.00    +0.000 OA
ATOM     12  O   UNL     1       6.353   2.954   0.482  0.00  0.00    +0.000 OA
BRANCH  10  13
ATOM     13  N   UNL     1       5.315   3.918  -1.542  0.00  0.00    +0.000 NA
ATOM     14  H   UNL     1       6.229   4.290  -1.839  0.00  0.00    +0.000 HD
ATOM     15  H   UNL     1       4.540   3.858  -2.218  0.00  0.00    +0.000 HD
ENDBRANCH  10  13
ENDBRANCH   5  10
BRANCH   1  16
ATOM     16  C   UNL     1       1.377  -2.539  -0.229  0.00  0.00    +0.000 C 
BRANCH  16  17
ATOM     17  C   UNL     1       1.452  -2.940  -1.704  0.00  0.00    +0.000 C 
BRANCH  17  19
ATOM     18  C   UNL     1       1.480  -4.866  -3.295  0.00  0.00    +0.000 C 
ATOM     19  C   UNL     1       1.404  -4.465  -1.821  0.00  0.00    +0.000 C 
ENDBRANCH  17  19
ENDBRANCH  16  17
ENDBRANCH   1  16
BRANCH   9  20
ATOM     20  C   UNL     1      -1.227  -0.887   0.005  0.00  0.00    +0.000 C 
BRANCH  20  21
ATOM     21  N   UNL     1      -1.572  -1.286   1.377  0.00  0.00    +0.000 NA
ATOM     22  C   UNL     1      -1.866  -0.111   2.208  0.00  0.00    +0.000 C 
BRANCH  21  23
ATOM     23  C   UNL     1      -2.697  -2.230   1.383  0.00  0.00    +0.000 C 
BRANCH  23  24
ATOM     24  C   UNL     1      -2.864  -2.803   2.767  0.00  0.00    +0.000 C 
ATOM     25  O   UNL     1      -2.119  -2.458   3.660  0.00  0.00    +0.000 OA
ATOM     26  N   UNL     1      -3.841  -3.698   3.012  0.00  0.00    +0.000 N 
ATOM     27  H   UNL     1      -4.474  -3.991   2.254  0.00  0.00    +0.000 HD
BRANCH  26  28
ATOM     28  C   UNL     1      -4.004  -4.255   4.357  0.00  0.00    +0.000 C 
BRANCH  28  29
ATOM     29  C   UNL     1      -5.176  -5.239   4.364  0.00  0.00    +0.000 C 
BRANCH  29  30
ATOM     30  O   UNL     1      -4.865  -6.355   3.528  0.00  0.00    +0.000 OA
ATOM     31  C   UNL     1      -5.899  -7.339   3.464  0.00  0.00    +0.000 C 
ENDBRANCH  29  30
ENDBRANCH  28  29
ENDBRANCH  26  28
ENDBRANCH  23  24
ENDBRANCH  21  23
ENDBRANCH  20  21
ENDBRANCH   9  20
TORSDOF 12
ENDMDL
MODEL      268
REMARK  Name = ZINC26641275
REMARK  16 active torsions:
REMARK  status: ('A' for Active; 'I' for Inactive)
REMARK    1  A    between atoms: C_1  and  C_2
REMARK    2  A    between atoms: C_2  and  C_3
REMARK    3  A    between atoms: C_2  and  C_4
REMARK    4  A    between atoms: C_4  and  C_5
REMARK    5  A    between atoms: C_5  and  N_6
REMARK    6  A    between atoms: C_10  and  C_12
REMARK    7  A    between atoms: C_12  and  C_13
REMARK    8  A    between atoms: C_12  and  S_14
REMARK    9  A    between atoms: S_14  and  C_15
REMARK   10  A    between atoms: C_18  and  C_24
REMARK   11  A    between atoms: N_19  and  C_20
REMARK   12  A    between atoms: C_20  and  C_21
REMARK   13  A    between atoms: C_21  and  C_22
REMARK   14  A    between atoms: C_21  and  C_23
REMARK   15  A    between atoms: C_24  and  C_25
REMARK   16  A    between atoms: C_25  and  C_26
REMARK                            x       y       z     vdW  Elec       q    Type
REMARK                         _______ _______ _______ _____ _____    ______ ____
ROOT
ATOM      1  S   UNL     1       3.799   0.891  -0.030  0.00  0.00    +0.000 S 
ENDROOT
BRANCH   1   2
ATOM      2  C   UNL     1       2.042   0.761  -0.013  0.00  0.00    +0.000 A 
ATOM      3  N   UNL     1       1.185   1.756   0.000  0.00  0.00    +0.000 NA
ATOM      4  N   UNL     1      -0.016   1.299   0.009  0.00  0.00    +0.000 NA
ATOM      5  C   UNL     1       0.002  -0.004   0.002  0.00  0.00    +0.000 A 
ATOM      6  N   UNL     1       1.313  -0.393  -0.013  0.00  0.00    +0.000 N 
BRANCH   5   7
ATOM      7  C   UNL     1      -1.200  -0.913   0.008  0.00  0.00    +0.000 C 
BRANCH   7   8
ATOM      8  C   UNL     1      -1.619  -1.213  -1.433  0.00  0.00    +0.000 C 
BRANCH   8   9
ATOM      9  C   UNL     1      -2.821  -2.123  -1.427  0.00  0.00    +0.000 C 
ATOM     10  O   UNL     1      -3.295  -2.494  -0.374  0.00  0.00    +0.000 OA
ATOM     11  N   UNL     1      -3.369  -2.522  -2.591  0.00  0.00    +0.000 N 
ATOM     12  H   UNL     1      -2.967  -2.207  -3.485  0.00  0.00    +0.000 HD
ATOM     13  H   UNL     1      -4.190  -3.144  -2.587  0.00  0.00    +0.000 HD
ENDBRANCH   8   9
ENDBRANCH   7   8
ENDBRANCH   5   7
BRANCH   6  14
ATOM     14  C   UNL     1       1.829  -1.765  -0.025  0.00  0.00    +0.000 C 
BRANCH  14  15
ATOM     15  C   UNL     1       1.994  -2.235  -1.471  0.00  0.00    +0.000 C 
ATOM     16  C   UNL     1       3.069  -1.392  -2.161  0.00  0.00    +0.000 C 
ATOM     17  C   UNL     1       2.413  -3.706  -1.484  0.00  0.00    +0.000 C 
ENDBRANCH  14  15
ENDBRANCH   6  14
ENDBRANCH   1   2
BRANCH   1  18
ATOM     18  C   UNL     1       3.981   2.692  -0.022  0.00  0.00    +0.000 C 
ATOM     19  C   UNL     1       3.413   3.268  -1.320  0.00  0.00    +0.000 C 
BRANCH  18  24
ATOM     20  N   UNL     1       7.477   5.746   1.228  0.00  0.00    +0.000 N 
ATOM     21  C   UNL     1       7.112   4.557   0.709  0.00  0.00    +0.000 C 
ATOM     22  O   UNL     1       7.960   3.773   0.330  0.00  0.00    +0.000 OA
ATOM     23  N   UNL     1       5.806   4.238   0.609  0.00  0.00    +0.000 N 
ATOM     24  C   UNL     1       5.441   3.049   0.090  0.00  0.00    +0.000 C 
ATOM     25  O   UNL     1       6.287   2.267  -0.288  0.00  0.00    +0.000 OA
ATOM     26  H   UNL     1       6.758   6.411   1.548  0.00  0.00    +0.000 HD
ATOM     27  H   UNL     1       5.088   4.903   0.929  0.00  0.00    +0.000 HD
BRANCH  20  28
ATOM     28  C   UNL     1       8.896   6.093   1.336  0.00  0.00    +0.000 C 
BRANCH  28  29
ATOM     29  C   UNL     1       9.035   7.486   1.954  0.00  0.00    +0.000 C 
BRANCH  29  31
ATOM     30  C   UNL     1      11.122   7.964   0.666  0.00  0.00    +0.000 C 
ATOM     31  C   UNL     1      10.517   7.848   2.067  0.00  0.00    +0.000 C 
ATOM     32  C   UNL     1      10.661   9.185   2.797  0.00  0.00    +0.000 C 
ENDBRANCH  29  31
ENDBRANCH  28  29
ENDBRANCH  20  28
ENDBRANCH  18  24
ENDBRANCH   1  18
TORSDOF 11
ENDMDL
MODEL      269
REMARK  Name = ZINC25925237
REMARK  12 active torsions:
REMARK  status: ('A' for Active; 'I' for Inactive)
REMARK    1  A    between atoms: C_1  and  C_2
REMARK    2  A    between atoms: C_5  and  S_21
REMARK    3  A    between atoms: C_7  and  C_8
REMARK    4  A    between atoms: N_10  and  C_11
REMARK    5  A    between atoms: C_11  and  C_12
REMARK    6  A    between atoms: C_12  and  N_13
REMARK    7  A    between atoms: C_14  and  C_16
REMARK    8  A    between atoms: S_21  and  N_24
REMARK    9  A    between atoms: N_24  and  C_25
REMARK   10  A    between atoms: C_25  and  C_26
REMARK   11  A    between atoms: C_26  and  O_27
REMARK   12  A    between atoms: O_27  and  C_28
REMARK                            x       y       z     vdW  Elec       q    Type
REMARK                         _______ _______ _______ _____ _____    ______ ____
ROOT
ATOM      1  C   UNL     1       5.043   5.608   0.204  0.00  0.00    +0.000 C 
ATOM      2  C   UNL     1       3.729   6.340   0.106  0.00  0.00    +0.000 A 
ATOM      3  C   UNL     1       3.673   7.697   0.350  0.00  0.00    +0.000 A 
ATOM      4  C   UNL     1       2.468   8.369   0.260  0.00  0.00    +0.000 A 
ATOM      5  C   UNL     1       1.311   7.688  -0.075  0.00  0.00    +0.000 A 
ATOM      6  C   UNL     1       1.354   6.332  -0.327  0.00  0.00    +0.000 A 
ATOM      7  C   UNL     1       2.566   5.646  -0.233  0.00  0.00    +0.000 A 
ENDROOT
BRANCH   7   8
ATOM      8  C   UNL     1       2.619   4.192  -0.497  0.00  0.00    +0.000 C 
ATOM      9  O   UNL     1       3.691   3.619  -0.526  0.00  0.00    +0.000 OA
ATOM     10  N   UNL     1       1.480   3.503  -0.705  0.00  0.00    +0.000 N 
ATOM     11  H   UNL     1       0.572   3.989  -0.679  0.00  0.00    +0.000 HD
BRANCH  10  12
ATOM     12  C   UNL     1       1.532   2.063  -0.966  0.00  0.00    +0.000 C 
BRANCH  12  13
ATOM     13  C   UNL     1       0.112   1.529  -1.165  0.00  0.00    +0.000 C 
BRANCH  13  14
ATOM     14  N   UNL     1       0.165   0.088  -1.427  0.00  0.00    +0.000 N 
ATOM     15  C   UNL     1      -0.975  -0.601  -1.635  0.00  0.00    +0.000 C 
ATOM     16  O   UNL     1      -2.047  -0.026  -1.605  0.00  0.00    +0.000 OA
ATOM     17  H   UNL     1       1.073  -0.398  -1.452  0.00  0.00    +0.000 HD
BRANCH  15  18
ATOM     18  C   UNL     1      -0.922  -2.043  -1.897  0.00  0.00    +0.000 A 
ATOM     19  C   UNL     1      -1.995  -2.857  -2.123  0.00  0.00    +0.000 A 
ATOM     20  C   UNL     1      -1.485  -4.149  -2.325  0.00  0.00    +0.000 A 
ATOM     21  C   UNL     1      -0.141  -4.068  -2.215  0.00  0.00    +0.000 A 
ATOM     22  O   UNL     1       0.195  -2.797  -1.962  0.00  0.00    +0.000 OA
ENDBRANCH  15  18
ENDBRANCH  13  14
ENDBRANCH  12  13
ENDBRANCH  10  12
ENDBRANCH   7   8
BRANCH   5  23
ATOM     23  S   UNL     1      -0.219   8.554  -0.187  0.00  0.00    +0.000 S 
ATOM     24  O   UNL     1      -1.246   7.593   0.018  0.00  0.00    +0.000 OA
ATOM     25  O   UNL     1      -0.089   9.714   0.623  0.00  0.00    +0.000 OA
BRANCH  23  26
ATOM     26  N   UNL     1      -0.370   9.082  -1.749  0.00  0.00    +0.000 NA
ATOM     27  H   UNL     1      -0.373  10.091  -1.954  0.00  0.00    +0.000 HD
BRANCH  26  28
ATOM     28  C   UNL     1      -0.498   8.113  -2.841  0.00  0.00    +0.000 C 
BRANCH  28  29
ATOM     29  C   UNL     1      -0.990   8.827  -4.101  0.00  0.00    +0.000 C 
BRANCH  29  30
ATOM     30  O   UNL     1       0.001   9.759  -4.538  0.00  0.00    +0.000 OA
ATOM     31  C   UNL     1      -0.361  10.483  -5.715  0.00  0.00    +0.000 C 
ENDBRANCH  29  30
ENDBRANCH  28  29
ENDBRANCH  26  28
ENDBRANCH  23  26
ENDBRANCH   5  23
TORSDOF 10
ENDMDL
MODEL      270
REMARK  Name = ZINC21147782
REMARK  15 active torsions:
REMARK  status: ('A' for Active; 'I' for Inactive)
REMARK    1  A    between atoms: C_1  and  O_2
REMARK    2  A    between atoms: O_2  and  C_3
REMARK    3  A    between atoms: C_3  and  C_4
REMARK    4  A    between atoms: C_4  and  N_5
REMARK    5  A    between atoms: N_5  and  C_6
REMARK    6  A    between atoms: C_6  and  C_7
REMARK    7  A    between atoms: C_7  and  O_8
REMARK    8  A    between atoms: O_8  and  C_9
REMARK    9  A    between atoms: C_10  and  C_12
REMARK   10  A    between atoms: C_12  and  O_13
REMARK   11  A    between atoms: O_13  and  C_14
REMARK   12  A    between atoms: C_14  and  C_16
REMARK   13  A    between atoms: C_16  and  C_17
REMARK   14  A    between atoms: C_17  and  C_18
REMARK   15  A    between atoms: C_17  and  N_25
REMARK                            x       y       z     vdW  Elec       q    Type
REMARK                         _______ _______ _______ _____ _____    ______ ____
ROOT
ATOM      1  C   UNL     1       1.216   3.646  -0.027  0.00  0.00    +0.000 C 
ENDROOT
BRANCH   1   2
ATOM      2  C   UNL     1       1.097   2.145  -0.090  0.00  0.00    +0.000 C 
ATOM      3  O   UNL     1       2.091   1.460  -0.110  0.00  0.00    +0.000 OA
BRANCH   2   4
ATOM      4  O   UNL     1      -0.116   1.569  -0.123  0.00  0.00    +0.000 OA
BRANCH   4   5
ATOM      5  C   UNL     1      -0.155   0.119  -0.183  0.00  0.00    +0.000 C 
BRANCH   5   7
ATOM      6  N   UNL     1      -1.871  -1.660  -0.270  0.00  0.00    +0.000 N 
ATOM      7  C   UNL     1      -1.589  -0.343  -0.213  0.00  0.00    +0.000 C 
ATOM      8  O   UNL     1      -2.489   0.469  -0.186  0.00  0.00    +0.000 OA
BRANCH   6   9
ATOM      9  C   UNL     1      -3.265  -2.110  -0.299  0.00  0.00    +0.000 C 
BRANCH   9  10
ATOM     10  C   UNL     1      -3.740  -2.207  -1.750  0.00  0.00    +0.000 C 
BRANCH  10  12
ATOM     11  C   UNL     1      -3.367  -3.398  -3.796  0.00  0.00    +0.000 C 
ATOM     12  O   UNL     1      -2.999  -3.225  -2.426  0.00  0.00    +0.000 OA
ENDBRANCH  10  12
ENDBRANCH   9  10
ENDBRANCH   6   9
BRANCH   6  13
ATOM     13  C   UNL     1      -0.784  -2.642  -0.302  0.00  0.00    +0.000 C 
BRANCH  13  14
ATOM     14  C   UNL     1      -0.417  -3.043   1.128  0.00  0.00    +0.000 C 
BRANCH  14  15
ATOM     15  O   UNL     1      -1.521  -3.721   1.731  0.00  0.00    +0.000 OA
ATOM     16  C   UNL     1      -1.281  -4.141   3.076  0.00  0.00    +0.000 C 
ENDBRANCH  14  15
ENDBRANCH  13  14
ENDBRANCH   6  13
ENDBRANCH   5   7
ENDBRANCH   4   5
ENDBRANCH   2   4
ENDBRANCH   1   2
BRANCH   1  17
ATOM     17  C   UNL     1       2.695   4.039   0.001  0.00  0.00    +0.000 C 
BRANCH  17  18
ATOM     18  N   UNL     1       3.326   3.652  -1.263  0.00  0.00    +0.000 N 
ATOM     19  C   UNL     1       2.905   4.197  -2.421  0.00  0.00    +0.000 C 
ATOM     20  O   UNL     1       2.059   5.070  -2.410  0.00  0.00    +0.000 OA
ATOM     21  N   UNL     1       3.421   3.774  -3.592  0.00  0.00    +0.000 N 
ATOM     22  H   UNL     1       4.093   2.964  -1.266  0.00  0.00    +0.000 HD
ATOM     23  H   UNL     1       4.137   3.034  -3.602  0.00  0.00    +0.000 HD
ATOM     24  H   UNL     1       3.098   4.190  -4.478  0.00  0.00    +0.000 HD
ENDBRANCH  17  18
BRANCH  17  25
ATOM     25  C   UNL     1       2.815   5.529   0.187  0.00  0.00    +0.000 A 
ATOM     26  C   UNL     1       3.986   6.177  -0.161  0.00  0.00    +0.000 A 
ATOM     27  C   UNL     1       4.095   7.545   0.004  0.00  0.00    +0.000 A 
ATOM     28  C   UNL     1       3.036   8.264   0.529  0.00  0.00    +0.000 A 
ATOM     29  C   UNL     1       1.867   7.615   0.883  0.00  0.00    +0.000 A 
ATOM     30  C   UNL     1       1.757   6.248   0.712  0.00  0.00    +0.000 A 
ATOM     31 CL   UNL     1       3.175   9.981   0.745  0.00  0.00    +0.000 Cl
ENDBRANCH  17  25
ENDBRANCH   1  17
TORSDOF 13
ENDMDL
MODEL      271
REMARK  Name = ZINC04068748
REMARK  11 active torsions:
REMARK  status: ('A' for Active; 'I' for Inactive)
REMARK    1  A    between atoms: C_3  and  N_20
REMARK    2  A    between atoms: C_4  and  C_18
REMARK    3  A    between atoms: C_5  and  S_7
REMARK    4  A    between atoms: S_7  and  N_10
REMARK    5  A    between atoms: N_10  and  C_11
REMARK    6  A    between atoms: N_20  and  C_21
REMARK    7  A    between atoms: C_21  and  C_22
REMARK    8  A    between atoms: C_21  and  C_28
REMARK    9  A    between atoms: C_21  and  N_31
REMARK   10  A    between atoms: C_22  and  C_23
REMARK   11  A    between atoms: C_28  and  O_29
REMARK                            x       y       z     vdW  Elec       q    Type
REMARK                         _______ _______ _______ _____ _____    ______ ____
ROOT
ATOM      1  C   UNL     1       0.104   6.131  -0.741  0.00  0.00    +0.000 A 
ATOM      2  C   UNL     1       1.482   6.069  -0.780  0.00  0.00    +0.000 A 
ATOM      3  C   UNL     1       2.140   4.920  -0.360  0.00  0.00    +0.000 A 
ATOM      4  C   UNL     1       1.394   3.823   0.104  0.00  0.00    +0.000 A 
ATOM      5  C   UNL     1      -0.001   3.902   0.136  0.00  0.00    +0.000 A 
ATOM      6  C   UNL     1      -0.634   5.049  -0.290  0.00  0.00    +0.000 A 
ENDROOT
BRANCH   4   7
ATOM      7  C   UNL     1       2.078   2.598   0.552  0.00  0.00    +0.000 C 
ATOM      8  O   UNL     1       2.240   1.675  -0.222  0.00  0.00    +0.000 OA
ATOM      9  O   UNL     1       2.525   2.501   1.820  0.00  0.00    +0.000 OA
ENDBRANCH   4   7
BRANCH   5  10
ATOM     10  S   UNL     1      -0.948   2.534   0.715  0.00  0.00    +0.000 S 
ATOM     11  O   UNL     1      -2.314   2.909   0.603  0.00  0.00    +0.000 OA
ATOM     12  O   UNL     1      -0.367   2.130   1.947  0.00  0.00    +0.000 OA
BRANCH  10  13
ATOM     13  N   UNL     1      -0.711   1.288  -0.350  0.00  0.00    +0.000 N 
ATOM     14  H   UNL     1      -0.277   0.411  -0.029  0.00  0.00    +0.000 HD
BRANCH  13  15
ATOM     15  C   UNL     1      -1.098   1.427  -1.686  0.00  0.00    +0.000 A 
ATOM     16  C   UNL     1      -2.352   1.938  -1.997  0.00  0.00    +0.000 A 
ATOM     17  C   UNL     1      -2.735   2.070  -3.317  0.00  0.00    +0.000 A 
ATOM     18  C   UNL     1      -1.871   1.692  -4.330  0.00  0.00    +0.000 A 
ATOM     19  C   UNL     1      -0.621   1.183  -4.023  0.00  0.00    +0.000 A 
ATOM     20  C   UNL     1      -0.233   1.050  -2.704  0.00  0.00    +0.000 A 
ATOM     21 CL   UNL     1      -2.355   1.859  -5.989  0.00  0.00    +0.000 Cl
ENDBRANCH  13  15
ENDBRANCH  10  13
ENDBRANCH   5  10
BRANCH   3  22
ATOM     22  N   UNL     1       3.526   4.856  -0.397  0.00  0.00    +0.000 N 
ATOM     23  H   UNL     1       4.006   3.970  -0.184  0.00  0.00    +0.000 HD
BRANCH  22  24
ATOM     24  C   UNL     1       4.306   6.048  -0.738  0.00  0.00    +0.000 C 
BRANCH  24  25
ATOM     25  N   UNL     1       4.042   6.454  -2.130  0.00  0.00    +0.000 NA
ATOM     26  H   UNL     1       3.038   6.658  -2.237  0.00  0.00    +0.000 HD
ATOM     27  H   UNL     1       4.300   5.683  -2.761  0.00  0.00    +0.000 HD
ENDBRANCH  24  25
BRANCH  24  28
ATOM     28  C   UNL     1       3.918   7.196   0.197  0.00  0.00    +0.000 C 
BRANCH  28  29
ATOM     29  C   UNL     1       4.691   8.433  -0.180  0.00  0.00    +0.000 A 
ATOM     30  C   UNL     1       4.163   9.634  -0.484  0.00  0.00    +0.000 A 
ATOM     31  N   UNL     1       5.212  10.469  -0.760  0.00  0.00    +0.000 N 
ATOM     32  C   UNL     1       6.345   9.747  -0.625  0.00  0.00    +0.000 A 
ATOM     33  N   UNL     1       6.026   8.530  -0.278  0.00  0.00    +0.000 NA
ATOM     34  H   UNL     1       5.149  11.463  -1.022  0.00  0.00    +0.000 HD
ENDBRANCH  28  29
ENDBRANCH  24  28
BRANCH  24  35
ATOM     35  C   UNL     1       5.797   5.744  -0.582  0.00  0.00    +0.000 C 
BRANCH  35  36
ATOM     36  O   UNL     1       6.064   5.348   0.764  0.00  0.00    +0.000 OA
ATOM     37  H   UNL     1       5.538   4.537   0.981  0.00  0.00    +0.000 HD
ENDBRANCH  35  36
ENDBRANCH  24  35
ENDBRANCH  22  24
ENDBRANCH   3  22
TORSDOF 11
ENDMDL
MODEL      272
REMARK  Name = ZINC21047230
REMARK  11 active torsions:
REMARK  status: ('A' for Active; 'I' for Inactive)
REMARK    1  A    between atoms: C_1  and  C_2
REMARK    2  A    between atoms: C_5  and  C_8
REMARK    3  A    between atoms: C_8  and  N_9
REMARK    4  A    between atoms: N_11  and  C_12
REMARK    5  A    between atoms: C_15  and  C_18
REMARK    6  A    between atoms: N_24  and  C_27
REMARK    7  A    between atoms: C_27  and  C_28
REMARK    8  A    between atoms: N_30  and  C_31
REMARK    9  A    between atoms: C_31  and  C_32
REMARK   10  A    between atoms: C_31  and  C_33
REMARK   11  A    between atoms: C_31  and  C_34
REMARK                            x       y       z     vdW  Elec       q    Type
REMARK                         _______ _______ _______ _____ _____    ______ ____
ROOT
ATOM      1  N   UNL     1       2.559  -0.500   0.077  0.00  0.00    +0.000 N 
ATOM      2  C   UNL     1       1.531  -1.095  -0.608  0.00  0.00    +0.000 C 
ATOM      3  N   UNL     1       1.178  -0.640  -1.791  0.00  0.00    +0.000 N 
ATOM      4  N   UNL     1       0.871  -2.163  -0.059  0.00  0.00    +0.000 N 
ATOM      5  C   UNL     1       0.555  -2.200   1.377  0.00  0.00    +0.000 C 
ATOM      6  C   UNL     1      -0.941  -2.518   1.533  0.00  0.00    +0.000 C 
ATOM      7  N   UNL     1      -1.253  -3.751   0.797  0.00  0.00    +0.000 NA
ATOM      8  C   UNL     1      -1.022  -3.585  -0.644  0.00  0.00    +0.000 C 
ATOM      9  C   UNL     1       0.465  -3.307  -0.890  0.00  0.00    +0.000 C 
ATOM     10  H   UNL     1       2.671   0.523   0.050  0.00  0.00    +0.000 HD
ATOM     11  H   UNL     1       0.472  -1.144  -2.346  0.00  0.00    +0.000 HD
ENDROOT
BRANCH   3  12
ATOM     12  C   UNL     1       1.748   0.497  -2.281  0.00  0.00    +0.000 A 
ATOM     13  C   UNL     1       0.946   1.489  -2.859  0.00  0.00    +0.000 A 
ATOM     14  C   UNL     1       1.515   2.630  -3.345  0.00  0.00    +0.000 A 
ATOM     15  C   UNL     1       2.902   2.804  -3.276  0.00  0.00    +0.000 A 
ATOM     16  C   UNL     1       3.705   1.810  -2.703  0.00  0.00    +0.000 A 
ATOM     17  C   UNL     1       3.135   0.672  -2.212  0.00  0.00    +0.000 A 
BRANCH  15  18
ATOM     18  C   UNL     1       3.517   4.033  -3.804  0.00  0.00    +0.000 C 
ATOM     19  O   UNL     1       4.721   4.184  -3.744  0.00  0.00    +0.000 OA
ATOM     20  O   UNL     1       2.744   4.990  -4.356  0.00  0.00    +0.000 OA
ENDBRANCH  15  18
ENDBRANCH   3  12
BRANCH   1  21
ATOM     21  C   UNL     1       3.498  -1.320   0.846  0.00  0.00    +0.000 C 
BRANCH  21  26
ATOM     22  C   UNL     1       7.928  -2.857  -2.530  0.00  0.00    +0.000 C 
ATOM     23  C   UNL     1       6.773  -2.457  -1.650  0.00  0.00    +0.000 A 
ATOM     24  C   UNL     1       6.835  -1.285  -0.918  0.00  0.00    +0.000 A 
ATOM     25  C   UNL     1       5.776  -0.918  -0.110  0.00  0.00    +0.000 A 
ATOM     26  C   UNL     1       4.653  -1.721  -0.035  0.00  0.00    +0.000 A 
ATOM     27  C   UNL     1       4.593  -2.895  -0.763  0.00  0.00    +0.000 A 
ATOM     28  C   UNL     1       5.651  -3.260  -1.574  0.00  0.00    +0.000 A 
ENDBRANCH  21  26
ENDBRANCH   1  21
BRANCH   7  29
ATOM     29  C   UNL     1      -2.630  -4.188   1.063  0.00  0.00    +0.000 C 
BRANCH  29  30
ATOM     30  C   UNL     1      -2.761  -4.583   2.511  0.00  0.00    +0.000 C 
ATOM     31  O   UNL     1      -1.802  -4.508   3.250  0.00  0.00    +0.000 OA
ATOM     32  N   UNL     1      -3.945  -5.019   2.986  0.00  0.00    +0.000 N 
ATOM     33  H   UNL     1      -4.760  -5.083   2.359  0.00  0.00    +0.000 HD
BRANCH  32  34
ATOM     34  C   UNL     1      -4.073  -5.403   4.394  0.00  0.00    +0.000 C 
ATOM     35  C   UNL     1      -3.738  -4.203   5.282  0.00  0.00    +0.000 C 
ATOM     36  C   UNL     1      -5.507  -5.858   4.670  0.00  0.00    +0.000 C 
ATOM     37  C   UNL     1      -3.106  -6.549   4.700  0.00  0.00    +0.000 C 
ENDBRANCH  32  34
ENDBRANCH  29  30
ENDBRANCH   7  29
TORSDOF 7
ENDMDL
MODEL      273
REMARK  Name = ZINC23144101
REMARK  11 active torsions:
REMARK  status: ('A' for Active; 'I' for Inactive)
REMARK    1  A    between atoms: C_1  and  O_2
REMARK    2  A    between atoms: O_2  and  C_3
REMARK    3  A    between atoms: C_3  and  C_4
REMARK    4  A    between atoms: C_4  and  O_5
REMARK    5  A    between atoms: O_5  and  C_6
REMARK    6  A    between atoms: C_9  and  S_12
REMARK    7  A    between atoms: S_12  and  N_15
REMARK    8  A    between atoms: N_15  and  N_16
REMARK    9  A    between atoms: C_17  and  C_19
REMARK   10  A    between atoms: C_23  and  S_25
REMARK   11  A    between atoms: S_25  and  N_28
REMARK                            x       y       z     vdW  Elec       q    Type
REMARK                         _______ _______ _______ _____ _____    ______ ____
ROOT
ATOM      1  N   UNL     1       2.257  -2.535  -2.463  0.00  0.00    +0.000 N 
ATOM      2  C   UNL     1       2.955  -3.466  -3.143  0.00  0.00    +0.000 C 
ATOM      3  O   UNL     1       2.684  -4.644  -3.012  0.00  0.00    +0.000 OA
ATOM      4  H   UNL     1       2.487  -1.537  -2.574  0.00  0.00    +0.000 HD
ENDROOT
BRANCH   2   5
ATOM      5  C   UNL     1       4.050  -3.056  -4.046  0.00  0.00    +0.000 A 
ATOM      6  C   UNL     1       4.360  -1.704  -4.203  0.00  0.00    +0.000 A 
ATOM      7  C   UNL     1       5.386  -1.327  -5.044  0.00  0.00    +0.000 A 
ATOM      8  C   UNL     1       6.101  -2.287  -5.741  0.00  0.00    +0.000 A 
ATOM      9  C   UNL     1       5.795  -3.630  -5.593  0.00  0.00    +0.000 A 
ATOM     10  C   UNL     1       4.774  -4.019  -4.751  0.00  0.00    +0.000 A 
ATOM     11 CL   UNL     1       7.387  -1.805  -6.802  0.00  0.00    +0.000 Cl
BRANCH   9  12
ATOM     12  S   UNL     1       6.711  -4.843  -6.484  0.00  0.00    +0.000 S 
ATOM     13  O   UNL     1       8.085  -4.543  -6.283  0.00  0.00    +0.000 OA
ATOM     14  O   UNL     1       6.150  -6.104  -6.146  0.00  0.00    +0.000 OA
BRANCH  12  15
ATOM     15  N   UNL     1       6.405  -4.605  -8.093  0.00  0.00    +0.000 NA
ATOM     16  H   UNL     1       6.182  -5.407  -8.700  0.00  0.00    +0.000 HD
ATOM     17  H   UNL     1       6.437  -3.654  -8.489  0.00  0.00    +0.000 HD
ENDBRANCH  12  15
ENDBRANCH   9  12
ENDBRANCH   2   5
BRANCH   1  18
ATOM     18  N   UNL     1       1.219  -2.924  -1.607  0.00  0.00    +0.000 NA
BRANCH  18  19
ATOM     19  S   UNL     1       1.228  -2.442  -0.022  0.00  0.00    +0.000 S 
ATOM     20  O   UNL     1       2.484  -2.836   0.514  0.00  0.00    +0.000 OA
ATOM     21  O   UNL     1      -0.007  -2.865   0.539  0.00  0.00    +0.000 OA
BRANCH  19  25
ATOM     22  C   UNL     1       1.176   2.086   0.002  0.00  0.00    +0.000 A 
ATOM     23  C   UNL     1      -0.017   1.377   0.010  0.00  0.00    +0.000 A 
ATOM     24  C   UNL     1       0.002  -0.004   0.002  0.00  0.00    +0.000 A 
ATOM     25  C   UNL     1       1.208  -0.680  -0.013  0.00  0.00    +0.000 A 
ATOM     26  C   UNL     1       2.398   0.024  -0.021  0.00  0.00    +0.000 A 
ATOM     27  C   UNL     1       2.385   1.405  -0.013  0.00  0.00    +0.000 A 
BRANCH  22  28
ATOM     28  O   UNL     1       1.160   3.445   0.009  0.00  0.00    +0.000 OA
BRANCH  28  29
ATOM     29  C   UNL     1       2.426   4.108   0.001  0.00  0.00    +0.000 C 
BRANCH  29  30
ATOM     30  C   UNL     1       2.208   5.623   0.010  0.00  0.00    +0.000 C 
BRANCH  30  32
ATOM     31  C   UNL     1       1.338   7.410   1.351  0.00  0.00    +0.000 C 
ATOM     32  O   UNL     1       1.588   6.007   1.239  0.00  0.00    +0.000 OA
ENDBRANCH  30  32
ENDBRANCH  29  30
ENDBRANCH  28  29
ENDBRANCH  22  28
ENDBRANCH  19  25
ENDBRANCH  18  19
ENDBRANCH   1  18
TORSDOF 10
ENDMDL
MODEL      274
REMARK  Name = ZINC13207397
REMARK  11 active torsions:
REMARK  status: ('A' for Active; 'I' for Inactive)
REMARK    1  A    between atoms: C_1  and  N_2
REMARK    2  A    between atoms: N_7  and  C_10
REMARK    3  A    between atoms: N_11  and  C_20
REMARK    4  A    between atoms: C_20  and  C_21
REMARK    5  A    between atoms: C_21  and  C_22
REMARK    6  A    between atoms: C_22  and  N_33
REMARK    7  A    between atoms: C_23  and  C_24
REMARK    8  A    between atoms: C_23  and  N_33
REMARK    9  A    between atoms: C_24  and  C_25
REMARK   10  A    between atoms: C_24  and  O_32
REMARK   11  A    between atoms: C_28  and  O_31
REMARK                            x       y       z     vdW  Elec       q    Type
REMARK                         _______ _______ _______ _____ _____    ______ ____
ROOT
ATOM      1  C   UNL     1       1.151  10.387  -1.068  0.00  0.00    +0.000 C 
ATOM      2  N   UNL     1       2.492   9.900  -1.402  0.00  0.00    +0.000 N 
ATOM      3  C   UNL     1       3.267   9.287  -0.431  0.00  0.00    +0.000 A 
ATOM      4  C   UNL     1       4.538   8.838  -0.773  0.00  0.00    +0.000 A 
ATOM      5  C   UNL     1       4.999   9.019  -2.090  0.00  0.00    +0.000 A 
ATOM      6  O   UNL     1       6.108   8.631  -2.413  0.00  0.00    +0.000 OA
ATOM      7  N   UNL     1       4.200   9.627  -2.991  0.00  0.00    +0.000 N 
ATOM      8  C   UNL     1       2.974  10.060  -2.648  0.00  0.00    +0.000 A 
ATOM      9  O   UNL     1       2.282  10.604  -3.487  0.00  0.00    +0.000 OA
ATOM     10  C   UNL     1       4.675   9.819  -4.363  0.00  0.00    +0.000 C 
ATOM     11  N   UNL     1       5.075   8.272   0.375  0.00  0.00    +0.000 N 
ATOM     12  C   UNL     1       4.138   8.402   1.351  0.00  0.00    +0.000 A 
ATOM     13  N   UNL     1       3.075   9.004   0.859  0.00  0.00    +0.000 NA
ATOM     14  N   UNL     1       4.279   7.972   2.650  0.00  0.00    +0.000 N 
ATOM     15  C   UNL     1       3.273   6.951   2.979  0.00  0.00    +0.000 C 
ATOM     16  C   UNL     1       3.502   6.459   4.410  0.00  0.00    +0.000 C 
ATOM     17  O   UNL     1       3.455   7.574   5.306  0.00  0.00    +0.000 OA
ATOM     18  C   UNL     1       4.421   8.587   5.015  0.00  0.00    +0.000 C 
ATOM     19  C   UNL     1       4.202   9.101   3.590  0.00  0.00    +0.000 C 
ENDROOT
BRANCH  11  20
ATOM     20  C   UNL     1       6.399   7.658   0.510  0.00  0.00    +0.000 C 
BRANCH  20  21
ATOM     21  C   UNL     1       6.308   6.169   0.171  0.00  0.00    +0.000 C 
BRANCH  21  22
ATOM     22  C   UNL     1       7.660   5.503   0.433  0.00  0.00    +0.000 C 
BRANCH  22  23
ATOM     23  N   UNL     1       7.564   4.068   0.104  0.00  0.00    +0.000 N 
ATOM     24  H   UNL     1       6.838   3.631   0.690  0.00  0.00    +0.000 HD
ATOM     25  H   UNL     1       7.307   3.961  -0.888  0.00  0.00    +0.000 HD
BRANCH  23  26
ATOM     26  C   UNL     1       8.856   3.399   0.348  0.00  0.00    +0.000 C 
BRANCH  26  27
ATOM     27  C   UNL     1       8.726   1.916  -0.002  0.00  0.00    +0.000 C 
BRANCH  27  28
ATOM     28  C   UNL     1      10.003   1.201   0.359  0.00  0.00    +0.000 A 
ATOM     29  C   UNL     1      11.093   1.264  -0.488  0.00  0.00    +0.000 A 
ATOM     30  C   UNL     1      12.266   0.615  -0.157  0.00  0.00    +0.000 A 
ATOM     31  C   UNL     1      12.346  -0.112   1.022  0.00  0.00    +0.000 A 
ATOM     32  C   UNL     1      11.248  -0.179   1.868  0.00  0.00    +0.000 A 
ATOM     33  C   UNL     1      10.079   0.477   1.535  0.00  0.00    +0.000 A 
BRANCH  31  34
ATOM     34  O   UNL     1      13.496  -0.758   1.347  0.00  0.00    +0.000 OA
ATOM     35  H   UNL     1      14.193  -0.054   1.344  0.00  0.00    +0.000 HD
ENDBRANCH  31  34
ENDBRANCH  27  28
BRANCH  27  36
ATOM     36  O   UNL     1       8.482   1.776  -1.403  0.00  0.00    +0.000 OA
ATOM     37  H   UNL     1       9.235   2.169  -1.911  0.00  0.00    +0.000 HD
ENDBRANCH  27  36
ENDBRANCH  26  27
ENDBRANCH  23  26
ENDBRANCH  22  23
ENDBRANCH  21  22
ENDBRANCH  20  21
ENDBRANCH  11  20
TORSDOF 9
ENDMDL
MODEL      275
REMARK  Name = ZINC17255921
REMARK  10 active torsions:
REMARK  status: ('A' for Active; 'I' for Inactive)
REMARK    1  A    between atoms: C_1  and  C_2
REMARK    2  A    between atoms: C_2  and  N_3
REMARK    3  A    between atoms: N_3  and  C_4
REMARK    4  A    between atoms: C_4  and  C_5
REMARK    5  A    between atoms: C_10  and  C_12
REMARK    6  A    between atoms: C_12  and  C_13
REMARK    7  A    between atoms: N_15  and  C_16
REMARK    8  A    between atoms: C_20  and  C_22
REMARK    9  A    between atoms: N_24  and  N_25
REMARK   10  A    between atoms: C_26  and  C_28
REMARK                            x       y       z     vdW  Elec       q    Type
REMARK                         _______ _______ _______ _____ _____    ______ ____
ROOT
ATOM      1  C   UNL     1      -2.391   1.155  -0.086  0.00  0.00    +0.000 A 
ATOM      2  C   UNL     1      -3.468   1.706  -0.770  0.00  0.00    +0.000 A 
ATOM      3  C   UNL     1      -4.654   1.005  -0.881  0.00  0.00    +0.000 A 
ATOM      4  C   UNL     1      -4.781  -0.242  -0.302  0.00  0.00    +0.000 A 
ATOM      5  C   UNL     1      -3.707  -0.801   0.392  0.00  0.00    +0.000 A 
ATOM      6  C   UNL     1      -2.508  -0.096   0.498  0.00  0.00    +0.000 A 
ENDROOT
BRANCH   1   9
ATOM      7  C   UNL     1      -0.014   1.209   0.007  0.00  0.00    +0.000 C 
ATOM      8  O   UNL     1       0.002  -0.004  -0.009  0.00  0.00    +0.000 OA
ATOM      9  N   UNL     1      -1.191   1.867   0.018  0.00  0.00    +0.000 N 
ATOM     10  H   UNL     1      -1.206   2.893   0.103  0.00  0.00    +0.000 HD
BRANCH   7  11
ATOM     11  C   UNL     1       1.280   1.980   0.007  0.00  0.00    +0.000 C 
BRANCH  11  17
ATOM     12  N   UNL     1       4.722   0.323  -3.290  0.00  0.00    +0.000 N 
ATOM     13  C   UNL     1       4.069   0.647  -2.137  0.00  0.00    +0.000 A 
ATOM     14  N   UNL     1       4.472   1.473  -1.185  0.00  0.00    +0.000 NA
ATOM     15  C   UNL     1       3.789   1.736  -0.102  0.00  0.00    +0.000 A 
ATOM     16  O   UNL     1       4.182   2.499   0.759  0.00  0.00    +0.000 OA
ATOM     17  C   UNL     1       2.457   1.002  -0.014  0.00  0.00    +0.000 A 
ATOM     18  S   UNL     1       2.525   0.068  -1.594  0.00  0.00    +0.000 S 
BRANCH  12  19
ATOM     19  C   UNL     1       4.116  -0.619  -4.235  0.00  0.00    +0.000 C 
ATOM     20  C   UNL     1       3.256   0.150  -5.240  0.00  0.00    +0.000 C 
ENDBRANCH  12  19
BRANCH  12  22
ATOM     21  C   UNL     1       7.133   0.025  -3.009  0.00  0.00    +0.000 C 
ATOM     22  C   UNL     1       6.029   0.915  -3.583  0.00  0.00    +0.000 C 
ENDBRANCH  12  22
ENDBRANCH  11  17
ENDBRANCH   7  11
ENDBRANCH   1   9
BRANCH   5  23
ATOM     23  C   UNL     1      -3.840  -2.137   1.013  0.00  0.00    +0.000 C 
ATOM     24  O   UNL     1      -2.903  -2.622   1.618  0.00  0.00    +0.000 OA
ATOM     25  N   UNL     1      -4.999  -2.816   0.909  0.00  0.00    +0.000 N 
ATOM     26  H   UNL     1      -5.792  -2.405   0.397  0.00  0.00    +0.000 HD
BRANCH  25  27
ATOM     27  N   UNL     1      -5.125  -4.081   1.498  0.00  0.00    +0.000 N 
ATOM     28  C   UNL     1      -6.284  -4.761   1.394  0.00  0.00    +0.000 C 
ATOM     29  O   UNL     1      -7.222  -4.275   0.788  0.00  0.00    +0.000 OA
ATOM     30  H   UNL     1      -4.331  -4.492   2.010  0.00  0.00    +0.000 HD
BRANCH  28  31
ATOM     31  C   UNL     1      -6.416  -6.085   2.010  0.00  0.00    +0.000 A 
ATOM     32  C   UNL     1      -7.528  -6.877   1.980  0.00  0.00    +0.000 A 
ATOM     33  C   UNL     1      -7.210  -8.045   2.690  0.00  0.00    +0.000 A 
ATOM     34  C   UNL     1      -5.934  -7.918   3.116  0.00  0.00    +0.000 A 
ATOM     35  O   UNL     1      -5.457  -6.737   2.700  0.00  0.00    +0.000 OA
ENDBRANCH  28  31
ENDBRANCH  25  27
ENDBRANCH   5  23
TORSDOF 8
ENDMDL
MODEL      276
REMARK  Name = ZINC18287379
REMARK  12 active torsions:
REMARK  status: ('A' for Active; 'I' for Inactive)
REMARK    1  A    between atoms: C_1  and  C_2
REMARK    2  A    between atoms: C_7  and  C_19
REMARK    3  A    between atoms: C_11  and  C_12
REMARK    4  A    between atoms: C_12  and  O_14
REMARK    5  A    between atoms: O_14  and  C_15
REMARK    6  A    between atoms: C_15  and  C_16
REMARK    7  A    between atoms: C_16  and  O_17
REMARK    8  A    between atoms: O_17  and  C_18
REMARK    9  A    between atoms: C_19  and  S_20
REMARK   10  A    between atoms: S_20  and  C_21
REMARK   11  A    between atoms: C_24  and  C_27
REMARK   12  A    between atoms: N_25  and  N_26
REMARK                            x       y       z     vdW  Elec       q    Type
REMARK                         _______ _______ _______ _____ _____    ______ ____
ROOT
ATOM      1  C   UNL     1      -6.130   7.334   9.668  0.00  0.00    +0.000 C 
ATOM      2  C   UNL     1      -5.562   7.548   8.288  0.00  0.00    +0.000 A 
ATOM      3  C   UNL     1      -4.950   6.491   7.612  0.00  0.00    +0.000 A 
ATOM      4  C   UNL     1      -4.748   5.091   8.050  0.00  0.00    +0.000 A 
ATOM      5  O   UNL     1      -5.138   4.715   9.142  0.00  0.00    +0.000 OA
ATOM      6  N   UNL     1      -4.126   4.242   7.209  0.00  0.00    +0.000 N 
ATOM      7  C   UNL     1      -3.683   4.650   5.994  0.00  0.00    +0.000 A 
ATOM      8  N   UNL     1      -3.846   5.876   5.577  0.00  0.00    +0.000 NA
ATOM      9  C   UNL     1      -4.450   6.791   6.324  0.00  0.00    +0.000 A 
ATOM     10  S   UNL     1      -4.851   8.508   6.121  0.00  0.00    +0.000 S 
ATOM     11  C   UNL     1      -5.646   8.775   7.696  0.00  0.00    +0.000 A 
ATOM     12  H   UNL     1      -3.983   3.263   7.495  0.00  0.00    +0.000 HD
ENDROOT
BRANCH  11  13
ATOM     13  C   UNL     1      -6.240  10.005   8.224  0.00  0.00    +0.000 C 
ATOM     14  O   UNL     1      -6.746  10.011   9.330  0.00  0.00    +0.000 OA
BRANCH  13  15
ATOM     15  O   UNL     1      -6.226  11.133   7.483  0.00  0.00    +0.000 OA
BRANCH  15  16
ATOM     16  C   UNL     1      -6.833  12.314   8.069  0.00  0.00    +0.000 C 
BRANCH  16  17
ATOM     17  C   UNL     1      -6.722  13.484   7.089  0.00  0.00    +0.000 C 
BRANCH  17  18
ATOM     18  O   UNL     1      -7.495  13.202   5.921  0.00  0.00    +0.000 OA
ATOM     19  C   UNL     1      -7.459  14.237   4.936  0.00  0.00    +0.000 C 
ENDBRANCH  17  18
ENDBRANCH  16  17
ENDBRANCH  15  16
ENDBRANCH  13  15
ENDBRANCH  11  13
BRANCH   7  20
ATOM     20  C   UNL     1      -2.989   3.658   5.098  0.00  0.00    +0.000 C 
BRANCH  20  21
ATOM     21  S   UNL     1      -2.517   4.470   3.550  0.00  0.00    +0.000 S 
BRANCH  21  22
ATOM     22  C   UNL     1      -1.749   3.120   2.718  0.00  0.00    +0.000 A 
ATOM     23  N   UNL     1      -1.606   1.899   3.178  0.00  0.00    +0.000 NA
ATOM     24  N   UNL     1      -1.005   1.171   2.305  0.00  0.00    +0.000 NA
ATOM     25  C   UNL     1      -0.722   1.881   1.250  0.00  0.00    +0.000 A 
ATOM     26  N   UNL     1      -1.189   3.147   1.473  0.00  0.00    +0.000 N 
BRANCH  25  27
ATOM     27  C   UNL     1      -0.017   1.395   0.010  0.00  0.00    +0.000 C 
ATOM     28  F   UNL     1       0.002  -0.004   0.002  0.00  0.00    +0.000 F 
ATOM     29  F   UNL     1       1.296   1.879  -0.000  0.00  0.00    +0.000 F 
ATOM     30  F   UNL     1      -0.694   1.858  -1.124  0.00  0.00    +0.000 F 
ENDBRANCH  25  27
BRANCH  26  31
ATOM     31  N   UNL     1      -1.111   4.216   0.626  0.00  0.00    +0.000 N 
ATOM     32  H   UNL     1      -1.527   5.086   0.987  0.00  0.00    +0.000 HD
ATOM     33  H   UNL     1      -0.675   4.175  -0.306  0.00  0.00    +0.000 HD
ENDBRANCH  26  31
ENDBRANCH  21  22
ENDBRANCH  20  21
ENDBRANCH   7  20
TORSDOF 10
ENDMDL
MODEL      277
REMARK  Name = ZINC20912969
REMARK  11 active torsions:
REMARK  status: ('A' for Active; 'I' for Inactive)
REMARK    1  A    between atoms: C_1  and  C_2
REMARK    2  A    between atoms: C_2  and  C_3
REMARK    3  A    between atoms: C_6  and  C_8
REMARK    4  A    between atoms: C_8  and  N_9
REMARK    5  A    between atoms: N_9  and  C_10
REMARK    6  A    between atoms: C_11  and  C_13
REMARK    7  A    between atoms: C_13  and  S_14
REMARK    8  A    between atoms: S_14  and  C_15
REMARK    9  A    between atoms: N_19  and  N_20
REMARK   10  A    between atoms: N_21  and  N_22
REMARK   11  A    between atoms: C_23  and  C_24
REMARK                            x       y       z     vdW  Elec       q    Type
REMARK                         _______ _______ _______ _____ _____    ______ ____
ROOT
ATOM      1  C   UNL     1      -2.646  -2.378   0.040  0.00  0.00    +0.000 A 
ATOM      2  N   UNL     1      -3.317  -1.251   0.057  0.00  0.00    +0.000 NA
ATOM      3  N   UNL     1      -2.394  -0.197   0.053  0.00  0.00    +0.000 NA
ATOM      4  C   UNL     1      -1.189  -0.714   0.025  0.00  0.00    +0.000 A 
ATOM      5  N   UNL     1      -1.314  -2.076   0.020  0.00  0.00    +0.000 N 
ATOM      6  N   UNL     1       0.002  -0.004   0.009  0.00  0.00    +0.000 N 
ATOM      7  H   UNL     1       0.901  -0.507  -0.008  0.00  0.00    +0.000 HD
ENDROOT
BRANCH   5   8
ATOM      8  N   UNL     1      -0.287  -2.976  -0.003  0.00  0.00    +0.000 N 
ATOM      9  H   UNL     1      -0.562  -3.968  -0.004  0.00  0.00    +0.000 HD
ATOM     10  H   UNL     1       0.705  -2.696  -0.018  0.00  0.00    +0.000 HD
ENDBRANCH   5   8
BRANCH   6  11
ATOM     11  N   UNL     1      -0.017   1.397   0.017  0.00  0.00    +0.000 NA
ATOM     12  C   UNL     1       1.100   2.062   0.003  0.00  0.00    +0.000 C 
BRANCH  12  13
ATOM     13  C   UNL     1       1.080   3.532   0.011  0.00  0.00    +0.000 A 
ATOM     14  C   UNL     1       2.262   4.258   0.107  0.00  0.00    +0.000 A 
ATOM     15  C   UNL     1       2.240   5.646   0.108  0.00  0.00    +0.000 A 
ATOM     16  C   UNL     1       1.076   6.346   0.028  0.00  0.00    +0.000 A 
ATOM     17  C   UNL     1      -0.157   5.678  -0.066  0.00  0.00    +0.000 A 
ATOM     18  C   UNL     1      -0.183   4.262  -0.077  0.00  0.00    +0.000 A 
ATOM     19  C   UNL     1      -1.409   3.594  -0.171  0.00  0.00    +0.000 A 
ATOM     20  C   UNL     1      -2.565   4.313  -0.250  0.00  0.00    +0.000 A 
ATOM     21  C   UNL     1      -2.543   5.706  -0.240  0.00  0.00    +0.000 A 
ATOM     22  C   UNL     1      -1.368   6.388  -0.149  0.00  0.00    +0.000 A 
ENDBRANCH  12  13
ENDBRANCH   6  11
BRANCH   1  23
ATOM     23  S   UNL     1      -3.340  -3.997   0.043  0.00  0.00    +0.000 S 
BRANCH  23  24
ATOM     24  C   UNL     1      -5.102  -3.584   0.074  0.00  0.00    +0.000 C 
BRANCH  24  27
ATOM     25  N   UNL     1      -7.262  -4.789   0.104  0.00  0.00    +0.000 N 
ATOM     26  C   UNL     1      -7.934  -3.488   0.122  0.00  0.00    +0.000 C 
ATOM     27  C   UNL     1      -5.916  -4.852   0.081  0.00  0.00    +0.000 C 
ATOM     28  O   UNL     1      -5.359  -5.930   0.066  0.00  0.00    +0.000 OA
BRANCH  25  29
ATOM     29  C   UNL     1      -8.053  -6.022   0.110  0.00  0.00    +0.000 C 
BRANCH  29  33
ATOM     30  C   UNL     1      -8.113  -7.379   3.466  0.00  0.00    +0.000 A 
ATOM     31  N   UNL     1      -9.199  -6.660   3.435  0.00  0.00    +0.000 NA
ATOM     32  N   UNL     1      -9.311  -6.106   2.279  0.00  0.00    +0.000 NA
ATOM     33  C   UNL     1      -8.300  -6.453   1.533  0.00  0.00    +0.000 A 
ATOM     34  O   UNL     1      -7.522  -7.269   2.264  0.00  0.00    +0.000 OA
BRANCH  30  36
ATOM     35  C   UNL     1      -8.185  -9.606   4.554  0.00  0.00    +0.000 C 
ATOM     36  C   UNL     1      -7.613  -8.189   4.634  0.00  0.00    +0.000 C 
ENDBRANCH  30  36
ENDBRANCH  29  33
ENDBRANCH  25  29
ENDBRANCH  24  27
ENDBRANCH  23  24
ENDBRANCH   1  23
TORSDOF 9
ENDMDL
MODEL      278
REMARK  Name = ZINC28945017
REMARK  9 active torsions:
REMARK  status: ('A' for Active; 'I' for Inactive)
REMARK    1  A    between atoms: C_6  and  N_7
REMARK    2  A    between atoms: C_8  and  C_10
REMARK    3  A    between atoms: C_13  and  C_15
REMARK    4  A    between atoms: C_15  and  S_16
REMARK    5  A    between atoms: S_16  and  C_17
REMARK    6  A    between atoms: C_20  and  C_25
REMARK    7  A    between atoms: N_21  and  C_22
REMARK    8  A    between atoms: C_25  and  C_26
REMARK    9  A    between atoms: C_26  and  C_27
REMARK                            x       y       z     vdW  Elec       q    Type
REMARK                         _______ _______ _______ _____ _____    ______ ____
ROOT
ATOM      1  C   UNL     1       3.136  -8.284  -0.623  0.00  0.00    +0.000 C 
ENDROOT
BRANCH   1   5
ATOM      2  C   UNL     1       2.019  -4.324  -0.240  0.00  0.00    +0.000 A 
ATOM      3  N   UNL     1       1.058  -5.243  -0.270  0.00  0.00    +0.000 NA
ATOM      4  N   UNL     1       1.349  -6.466  -0.386  0.00  0.00    +0.000 NA
ATOM      5  C   UNL     1       2.600  -6.882  -0.481  0.00  0.00    +0.000 A 
ATOM      6  S   UNL     1       3.460  -5.372  -0.404  0.00  0.00    +0.000 S 
BRANCH   2   8
ATOM      7  N   UNL     1       0.717  -2.270  -0.007  0.00  0.00    +0.000 N 
ATOM      8  C   UNL     1       1.924  -2.860  -0.114  0.00  0.00    +0.000 C 
ATOM      9  O   UNL     1       2.935  -2.184  -0.107  0.00  0.00    +0.000 OA
ATOM     10  H   UNL     1      -0.133  -2.846   0.068  0.00  0.00    +0.000 HD
BRANCH   7  16
ATOM     11  C   UNL     1       1.512  -0.110  -0.740  0.00  0.00    +0.000 A 
ATOM     12  C   UNL     1       1.413   1.267  -0.730  0.00  0.00    +0.000 A 
ATOM     13  C   UNL     1       0.426   1.886   0.017  0.00  0.00    +0.000 A 
ATOM     14  C   UNL     1      -0.464   1.127   0.756  0.00  0.00    +0.000 A 
ATOM     15  C   UNL     1      -0.370  -0.251   0.750  0.00  0.00    +0.000 A 
ATOM     16  C   UNL     1       0.620  -0.875   0.001  0.00  0.00    +0.000 A 
ATOM     17 CL   UNL     1       0.304   3.618   0.027  0.00  0.00    +0.000 Cl
ENDBRANCH   7  16
ENDBRANCH   2   8
ENDBRANCH   1   5
BRANCH   1  18
ATOM     18  S   UNL     1       3.267  -8.704  -2.379  0.00  0.00    +0.000 S 
BRANCH  18  19
ATOM     19  C   UNL     1       3.899 -10.344  -2.255  0.00  0.00    +0.000 A 
ATOM     20  N   UNL     1       4.167 -10.995  -1.147  0.00  0.00    +0.000 NA
ATOM     21  N   UNL     1       4.612 -12.168  -1.427  0.00  0.00    +0.000 NA
ATOM     22  C   UNL     1       4.655 -12.334  -2.718  0.00  0.00    +0.000 A 
ATOM     23  N   UNL     1       4.196 -11.180  -3.292  0.00  0.00    +0.000 N 
BRANCH  23  24
ATOM     24  C   UNL     1       4.056 -10.899  -4.723  0.00  0.00    +0.000 C 
ATOM     25  C   UNL     1       3.907  -9.435  -5.144  0.00  0.00    +0.000 C 
ATOM     26  C   UNL     1       2.703 -10.379  -5.212  0.00  0.00    +0.000 C 
ENDBRANCH  23  24
BRANCH  22  27
ATOM     27  C   UNL     1       5.117 -13.570  -3.445  0.00  0.00    +0.000 C 
BRANCH  27  28
ATOM     28  C   UNL     1       3.927 -14.505  -3.670  0.00  0.00    +0.000 C 
BRANCH  28  29
ATOM     29  C   UNL     1       4.390 -15.741  -4.396  0.00  0.00    +0.000 C 
ATOM     30  O   UNL     1       5.557 -15.863  -4.705  0.00  0.00    +0.000 OA
ATOM     31  N   UNL     1       3.507 -16.712  -4.704  0.00  0.00    +0.000 N 
ATOM     32  H   UNL     1       2.516 -16.609  -4.442  0.00  0.00    +0.000 HD
ATOM     33  H   UNL     1       3.823 -17.557  -5.201  0.00  0.00    +0.000 HD
ENDBRANCH  28  29
ENDBRANCH  27  28
ENDBRANCH  22  27
ENDBRANCH  18  19
ENDBRANCH   1  18
TORSDOF 9
ENDMDL
MODEL      279
REMARK  Name = ZINC18517895
REMARK  9 active torsions:
REMARK  status: ('A' for Active; 'I' for Inactive)
REMARK    1  A    between atoms: C_4  and  N_7
REMARK    2  A    between atoms: C_15  and  C_17
REMARK    3  A    between atoms: C_17  and  C_18
REMARK    4  A    between atoms: C_18  and  C_19
REMARK    5  A    between atoms: C_19  and  O_21
REMARK    6  A    between atoms: O_21  and  C_22
REMARK    7  A    between atoms: C_22  and  C_23
REMARK    8  A    between atoms: N_28  and  C_29
REMARK    9  A    between atoms: C_29  and  C_30
REMARK                            x       y       z     vdW  Elec       q    Type
REMARK                         _______ _______ _______ _____ _____    ______ ____
ROOT
ATOM      1  C   UNL     1       5.561  -0.637  -0.056  0.00  0.00    +0.000 C 
ENDROOT
BRANCH   1  10
ATOM      2  N   UNL     1       1.298   1.787  -0.001  0.00  0.00    +0.000 N 
ATOM      3  C   UNL     1       2.147   0.722  -0.015  0.00  0.00    +0.000 A 
ATOM      4  C   UNL     1       1.344  -0.429  -0.013  0.00  0.00    +0.000 A 
ATOM      5  C   UNL     1       0.002  -0.004   0.002  0.00  0.00    +0.000 A 
ATOM      6  N   UNL     1      -0.016   1.301   0.009  0.00  0.00    +0.000 NA
ATOM      7  C   UNL     1       2.008  -1.732  -0.027  0.00  0.00    +0.000 A 
ATOM      8  O   UNL     1       1.368  -2.769  -0.026  0.00  0.00    +0.000 OA
ATOM      9  N   UNL     1       3.362  -1.744  -0.040  0.00  0.00    +0.000 N 
ATOM     10  C   UNL     1       4.056  -0.578  -0.041  0.00  0.00    +0.000 A 
ATOM     11  N   UNL     1       3.482   0.590  -0.028  0.00  0.00    +0.000 NA
ATOM     12  H   UNL     1       3.867  -2.641  -0.050  0.00  0.00    +0.000 HD
BRANCH   2  16
ATOM     13  C   UNL     1       2.416   5.801   0.011  0.00  0.00    +0.000 A 
ATOM     14  C   UNL     1       1.278   5.404  -0.668  0.00  0.00    +0.000 A 
ATOM     15  C   UNL     1       0.905   4.074  -0.674  0.00  0.00    +0.000 A 
ATOM     16  C   UNL     1       1.674   3.136   0.003  0.00  0.00    +0.000 A 
ATOM     17  C   UNL     1       2.813   3.539   0.688  0.00  0.00    +0.000 A 
ATOM     18  C   UNL     1       3.183   4.870   0.686  0.00  0.00    +0.000 A 
ENDBRANCH   2  16
ENDBRANCH   1  10
BRANCH   1  19
ATOM     19  C   UNL     1       6.128   0.784  -0.053  0.00  0.00    +0.000 C 
BRANCH  19  20
ATOM     20  C   UNL     1       7.634   0.724  -0.068  0.00  0.00    +0.000 C 
ATOM     21  O   UNL     1       8.196  -0.346  -0.080  0.00  0.00    +0.000 OA
BRANCH  20  22
ATOM     22  O   UNL     1       8.351   1.859  -0.069  0.00  0.00    +0.000 OA
BRANCH  22  23
ATOM     23  C   UNL     1       9.797   1.725  -0.084  0.00  0.00    +0.000 C 
BRANCH  23  24
ATOM     24  C   UNL     1      10.428   3.094  -0.083  0.00  0.00    +0.000 C 
ATOM     25  O   UNL     1       9.728   4.084  -0.070  0.00  0.00    +0.000 OA
ATOM     26  N   UNL     1      11.770   3.217  -0.095  0.00  0.00    +0.000 N 
ATOM     27  C   UNL     1      12.334   4.441  -0.094  0.00  0.00    +0.000 C 
ATOM     28  O   UNL     1      11.633   5.433  -0.082  0.00  0.00    +0.000 OA
ATOM     29  N   UNL     1      13.676   4.564  -0.106  0.00  0.00    +0.000 N 
ATOM     30  H   UNL     1      12.364   2.376  -0.106  0.00  0.00    +0.000 HD
ATOM     31  H   UNL     1      14.271   3.723  -0.117  0.00  0.00    +0.000 HD
BRANCH  29  32
ATOM     32  C   UNL     1      14.290   5.895  -0.105  0.00  0.00    +0.000 C 
BRANCH  32  33
ATOM     33  C   UNL     1      15.813   5.754  -0.121  0.00  0.00    +0.000 C 
ATOM     34  F   UNL     1      16.205   5.061  -1.271  0.00  0.00    +0.000 F 
ATOM     35  F   UNL     1      16.399   7.024  -0.119  0.00  0.00    +0.000 F 
ATOM     36  F   UNL     1      16.228   5.048   1.014  0.00  0.00    +0.000 F 
ENDBRANCH  32  33
ENDBRANCH  29  32
ENDBRANCH  23  24
ENDBRANCH  22  23
ENDBRANCH  20  22
ENDBRANCH  19  20
ENDBRANCH   1  19
TORSDOF 9
ENDMDL
MODEL      280
REMARK  Name = ZINC25133930
REMARK  11 active torsions:
REMARK  status: ('A' for Active; 'I' for Inactive)
REMARK    1  A    between atoms: C_1  and  N_2
REMARK    2  A    between atoms: N_2  and  S_3
REMARK    3  A    between atoms: S_3  and  C_6
REMARK    4  A    between atoms: C_8  and  C_14
REMARK    5  A    between atoms: C_11  and  O_12
REMARK    6  A    between atoms: O_12  and  C_13
REMARK    7  A    between atoms: N_16  and  C_17
REMARK    8  A    between atoms: C_17  and  C_18
REMARK    9  A    between atoms: C_18  and  N_19
REMARK   10  A    between atoms: N_19  and  S_20
REMARK   11  A    between atoms: S_20  and  C_23
REMARK                            x       y       z     vdW  Elec       q    Type
REMARK                         _______ _______ _______ _____ _____    ______ ____
ROOT
ATOM      1  C   UNL     1      -2.519   3.868   0.047  0.00  0.00    +0.000 C 
ATOM      2  O   UNL     1      -2.533   5.084   0.054  0.00  0.00    +0.000 OA
ATOM      3  N   UNL     1      -3.678   3.181   0.054  0.00  0.00    +0.000 N 
ATOM      4  H   UNL     1      -3.667   2.151   0.049  0.00  0.00    +0.000 HD
ENDROOT
BRANCH   1   7
ATOM      5  C   UNL     1       1.169   3.176   0.008  0.00  0.00    +0.000 A 
ATOM      6  C   UNL     1      -0.029   3.855   0.023  0.00  0.00    +0.000 A 
ATOM      7  C   UNL     1      -1.232   3.144   0.031  0.00  0.00    +0.000 A 
ATOM      8  C   UNL     1      -1.215   1.747   0.017  0.00  0.00    +0.000 A 
ATOM      9  C   UNL     1      -0.013   1.076   0.008  0.00  0.00    +0.000 A 
ATOM     10  C   UNL     1       1.182   1.786   0.000  0.00  0.00    +0.000 A 
BRANCH   5  11
ATOM     11  S   UNL     1       2.687   4.071  -0.002  0.00  0.00    +0.000 S 
ATOM     12  O   UNL     1       3.481   3.511  -1.039  0.00  0.00    +0.000 OA
ATOM     13  O   UNL     1       2.346   5.450   0.036  0.00  0.00    +0.000 OA
BRANCH  11  15
ATOM     14  C   UNL     1       3.924   2.374   1.702  0.00  0.00    +0.000 C 
ATOM     15  N   UNL     1       3.462   3.736   1.422  0.00  0.00    +0.000 NA
ATOM     16  H   UNL     1       3.620   4.485   2.111  0.00  0.00    +0.000 HD
ENDBRANCH  11  15
ENDBRANCH   5  11
BRANCH  10  17
ATOM     17  O   UNL     1       2.365   1.121  -0.015  0.00  0.00    +0.000 OA
ATOM     18  C   UNL     1       2.306  -0.307  -0.022  0.00  0.00    +0.000 C 
ENDBRANCH  10  17
ENDBRANCH   1   7
BRANCH   3  19
ATOM     19  C   UNL     1      -4.955   3.899   0.070  0.00  0.00    +0.000 C 
BRANCH  19  20
ATOM     20  C   UNL     1      -6.107   2.892   0.076  0.00  0.00    +0.000 C 
BRANCH  20  21
ATOM     21  N   UNL     1      -7.384   3.610   0.092  0.00  0.00    +0.000 NA
ATOM     22  H   UNL     1      -7.408   4.612   0.329  0.00  0.00    +0.000 HD
BRANCH  21  23
ATOM     23  S   UNL     1      -8.788   2.810  -0.270  0.00  0.00    +0.000 S 
ATOM     24  O   UNL     1      -9.839   3.758  -0.144  0.00  0.00    +0.000 OA
ATOM     25  O   UNL     1      -8.549   2.094  -1.474  0.00  0.00    +0.000 OA
BRANCH  23  26
ATOM     26  C   UNL     1      -9.041   1.606   0.991  0.00  0.00    +0.000 A 
ATOM     27  C   UNL     1      -8.525   0.332   0.843  0.00  0.00    +0.000 A 
ATOM     28  C   UNL     1      -8.720  -0.613   1.834  0.00  0.00    +0.000 A 
ATOM     29  C   UNL     1      -9.440  -0.286   2.968  0.00  0.00    +0.000 A 
ATOM     30  C   UNL     1      -9.960   0.987   3.114  0.00  0.00    +0.000 A 
ATOM     31  C   UNL     1      -9.761   1.933   2.124  0.00  0.00    +0.000 A 
ATOM     32 CL   UNL     1     -10.865   1.397   4.538  0.00  0.00    +0.000 Cl
ENDBRANCH  23  26
ENDBRANCH  21  23
ENDBRANCH  20  21
ENDBRANCH  19  20
ENDBRANCH   3  19
TORSDOF 9
ENDMDL
MODEL      281
REMARK  Name = ZINC17968528
REMARK  12 active torsions:
REMARK  status: ('A' for Active; 'I' for Inactive)
REMARK    1  A    between atoms: C_1  and  N_2
REMARK    2  A    between atoms: N_2  and  C_3
REMARK    3  A    between atoms: C_3  and  C_4
REMARK    4  A    between atoms: N_6  and  C_7
REMARK    5  A    between atoms: C_16  and  C_18
REMARK    6  A    between atoms: C_20  and  O_31
REMARK    7  A    between atoms: C_21  and  O_26
REMARK    8  A    between atoms: C_22  and  O_24
REMARK    9  A    between atoms: O_24  and  C_25
REMARK   10  A    between atoms: O_26  and  C_27
REMARK   11  A    between atoms: C_27  and  C_28
REMARK   12  A    between atoms: O_31  and  C_32
REMARK                            x       y       z     vdW  Elec       q    Type
REMARK                         _______ _______ _______ _____ _____    ______ ____
ROOT
ATOM      1  C   UNL     1       4.656   5.122  -3.650  0.00  0.00    +0.000 C 
ATOM      2  N   UNL     1       3.896   5.498  -2.455  0.00  0.00    +0.000 N 
ATOM      3  C   UNL     1       4.482   6.230  -1.487  0.00  0.00    +0.000 C 
ATOM      4  O   UNL     1       3.888   6.452  -0.450  0.00  0.00    +0.000 OA
ENDROOT
BRANCH   3   5
ATOM      5  C   UNL     1       5.845   6.762  -1.686  0.00  0.00    +0.000 A 
ATOM      6  C   UNL     1       6.723   6.857  -0.604  0.00  0.00    +0.000 A 
ATOM      7  C   UNL     1       8.000   7.351  -0.794  0.00  0.00    +0.000 A 
ATOM      8  C   UNL     1       8.407   7.764  -2.060  0.00  0.00    +0.000 A 
ATOM      9  C   UNL     1       7.532   7.674  -3.139  0.00  0.00    +0.000 A 
ATOM     10  C   UNL     1       6.256   7.176  -2.955  0.00  0.00    +0.000 A 
BRANCH   9  11
ATOM     11  O   UNL     1       7.933   8.078  -4.374  0.00  0.00    +0.000 OA
ATOM     12  C   UNL     1       6.983   7.958  -5.436  0.00  0.00    +0.000 C 
ENDBRANCH   9  11
BRANCH   7  13
ATOM     13  O   UNL     1       8.858   7.439   0.258  0.00  0.00    +0.000 OA
ATOM     14  C   UNL     1       8.375   6.998   1.528  0.00  0.00    +0.000 C 
ENDBRANCH   7  13
BRANCH   8  15
ATOM     15  O   UNL     1       9.661   8.254  -2.243  0.00  0.00    +0.000 OA
BRANCH  15  16
ATOM     16  C   UNL     1       9.836   9.664  -2.084  0.00  0.00    +0.000 C 
BRANCH  16  17
ATOM     17  C   UNL     1      11.281  10.021  -2.323  0.00  0.00    +0.000 C 
ATOM     18  O   UNL     1      12.082   9.154  -2.603  0.00  0.00    +0.000 OA
ATOM     19  N   UNL     1      11.683  11.303  -2.227  0.00  0.00    +0.000 N 
ATOM     20  H   UNL     1      11.003  12.040  -1.990  0.00  0.00    +0.000 HD
ATOM     21  H   UNL     1      12.670  11.547  -2.391  0.00  0.00    +0.000 HD
ENDBRANCH  16  17
ENDBRANCH  15  16
ENDBRANCH   8  15
ENDBRANCH   3   5
BRANCH   2  22
ATOM     22  C   UNL     1       2.500   5.079  -2.313  0.00  0.00    +0.000 C 
BRANCH  22  23
ATOM     23  C   UNL     1       1.597   6.128  -2.910  0.00  0.00    +0.000 C 
ATOM     24  O   UNL     1       2.074   7.128  -3.405  0.00  0.00    +0.000 OA
ATOM     25  N   UNL     1       0.261   5.956  -2.894  0.00  0.00    +0.000 N 
ATOM     26  H   UNL     1      -0.149   5.151  -2.400  0.00  0.00    +0.000 HD
BRANCH  25  27
ATOM     27  C   UNL     1      -0.572   6.874  -3.549  0.00  0.00    +0.000 A 
ATOM     28  C   UNL     1      -0.080   7.627  -4.606  0.00  0.00    +0.000 A 
ATOM     29  C   UNL     1      -0.902   8.531  -5.251  0.00  0.00    +0.000 A 
ATOM     30  C   UNL     1      -2.216   8.688  -4.845  0.00  0.00    +0.000 A 
ATOM     31  C   UNL     1      -2.711   7.938  -3.790  0.00  0.00    +0.000 A 
ATOM     32  C   UNL     1      -1.891   7.031  -3.140  0.00  0.00    +0.000 A 
ATOM     33  F   UNL     1      -2.371   6.303  -2.108  0.00  0.00    +0.000 F 
ATOM     34  F   UNL     1      -3.994   8.093  -3.394  0.00  0.00    +0.000 F 
ATOM     35  F   UNL     1      -3.016   9.574  -5.478  0.00  0.00    +0.000 F 
ENDBRANCH  25  27
ENDBRANCH  22  23
ENDBRANCH   2  22
TORSDOF 9
ENDMDL
MODEL      282
REMARK  Name = ZINC17178810
REMARK  10 active torsions:
REMARK  status: ('A' for Active; 'I' for Inactive)
REMARK    1  A    between atoms: C_1  and  C_2
REMARK    2  A    between atoms: C_6  and  N_8
REMARK    3  A    between atoms: C_9  and  C_11
REMARK    4  A    between atoms: C_11  and  O_12
REMARK    5  A    between atoms: O_12  and  C_13
REMARK    6  A    between atoms: C_13  and  C_15
REMARK    7  A    between atoms: C_15  and  N_16
REMARK    8  A    between atoms: C_17  and  C_19
REMARK    9  A    between atoms: C_19  and  N_20
REMARK   10  A    between atoms: C_21  and  C_23
REMARK                            x       y       z     vdW  Elec       q    Type
REMARK                         _______ _______ _______ _____ _____    ______ ____
ROOT
ATOM      1  C   UNL     1      -1.867   7.279   0.059  0.00  0.00    +0.000 C 
ATOM      2  O   UNL     1      -0.945   8.060   0.054  0.00  0.00    +0.000 OA
ENDROOT
BRANCH   1   3
ATOM      3  O   UNL     1      -1.627   5.958   0.050  0.00  0.00    +0.000 OA
BRANCH   3   4
ATOM      4  C   UNL     1      -0.236   5.541   0.034  0.00  0.00    +0.000 C 
BRANCH   4   6
ATOM      5  N   UNL     1       1.034   3.418   0.011  0.00  0.00    +0.000 N 
ATOM      6  C   UNL     1      -0.164   4.035   0.025  0.00  0.00    +0.000 C 
ATOM      7  O   UNL     1      -1.184   3.379   0.032  0.00  0.00    +0.000 OA
ATOM      8  H   UNL     1       1.900   3.976   0.005  0.00  0.00    +0.000 HD
BRANCH   5  14
ATOM      9  C   UNL     1      -1.298  -0.766   0.010  0.00  0.00    +0.000 C 
ATOM     10  C   UNL     1       0.002  -0.004   0.002  0.00  0.00    +0.000 A 
ATOM     11  C   UNL     1       1.198  -0.697  -0.013  0.00  0.00    +0.000 A 
ATOM     12  C   UNL     1       2.393   0.011  -0.020  0.00  0.00    +0.000 A 
ATOM     13  C   UNL     1       2.341   1.395  -0.013  0.00  0.00    +0.000 A 
ATOM     14  C   UNL     1       1.101   2.025   0.002  0.00  0.00    +0.000 A 
ATOM     15  N   UNL     1      -0.016   1.315   0.009  0.00  0.00    +0.000 NA
ATOM     16 CL   UNL     1       3.803   2.330  -0.021  0.00  0.00    +0.000 Cl
ATOM     17 CL   UNL     1       1.206  -2.433  -0.021  0.00  0.00    +0.000 Cl
ENDBRANCH   5  14
ENDBRANCH   4   6
ENDBRANCH   3   4
ENDBRANCH   1   3
BRANCH   1  18
ATOM     18  C   UNL     1      -3.285   7.787   0.075  0.00  0.00    +0.000 C 
BRANCH  18  19
ATOM     19  N   UNL     1      -3.279   9.252   0.083  0.00  0.00    +0.000 N 
ATOM     20  C   UNL     1      -4.443   9.931   0.098  0.00  0.00    +0.000 C 
ATOM     21  O   UNL     1      -5.496   9.329   0.105  0.00  0.00    +0.000 OA
ATOM     22  H   UNL     1      -2.384   9.763   0.077  0.00  0.00    +0.000 HD
BRANCH  20  23
ATOM     23  C   UNL     1      -4.436  11.438   0.106  0.00  0.00    +0.000 C 
BRANCH  23  24
ATOM     24  N   UNL     1      -5.815  11.932   0.122  0.00  0.00    +0.000 N 
ATOM     25  C   UNL     1      -6.056  13.259   0.131  0.00  0.00    +0.000 C 
ATOM     26  O   UNL     1      -5.127  14.045   0.126  0.00  0.00    +0.000 OA
ATOM     27  H   UNL     1      -6.601  11.267   0.126  0.00  0.00    +0.000 HD
BRANCH  25  28
ATOM     28  C   UNL     1      -7.436  13.753   0.147  0.00  0.00    +0.000 A 
ATOM     29  C   UNL     1      -7.895  15.061   0.164  0.00  0.00    +0.000 A 
ATOM     30  C   UNL     1      -9.255  15.246   0.173  0.00  0.00    +0.000 A 
ATOM     31  C   UNL     1     -10.072  14.160   0.176  0.00  0.00    +0.000 A 
ATOM     32  S   UNL     1      -8.961  12.829   0.157  0.00  0.00    +0.000 S 
ENDBRANCH  25  28
ENDBRANCH  23  24
ENDBRANCH  20  23
ENDBRANCH  18  19
ENDBRANCH   1  18
TORSDOF 9
ENDMDL
MODEL      283
REMARK  Name = ZINC11190076
REMARK  10 active torsions:
REMARK  status: ('A' for Active; 'I' for Inactive)
REMARK    1  A    between atoms: C_1  and  C_2
REMARK    2  A    between atoms: C_8  and  C_10
REMARK    3  A    between atoms: C_10  and  C_11
REMARK    4  A    between atoms: C_10  and  S_12
REMARK    5  A    between atoms: S_12  and  C_13
REMARK    6  A    between atoms: C_13  and  C_14
REMARK    7  A    between atoms: N_16  and  C_17
REMARK    8  A    between atoms: C_20  and  N_23
REMARK    9  A    between atoms: C_24  and  C_26
REMARK   10  A    between atoms: C_26  and  N_32
REMARK                            x       y       z     vdW  Elec       q    Type
REMARK                         _______ _______ _______ _____ _____    ______ ____
ROOT
ATOM      1  C   UNL     1      -4.388   5.260  -0.037  0.00  0.00    +0.000 C 
ATOM      2  O   UNL     1      -3.441   5.766  -0.601  0.00  0.00    +0.000 OA
ATOM      3  N   UNL     1      -4.274   4.028   0.497  0.00  0.00    +0.000 N 
ATOM      4  H   UNL     1      -5.054   3.626   1.037  0.00  0.00    +0.000 HD
ENDROOT
BRANCH   3   5
ATOM      5  C   UNL     1      -3.095   3.293   0.317  0.00  0.00    +0.000 A 
ATOM      6  C   UNL     1      -3.153   1.913   0.172  0.00  0.00    +0.000 A 
ATOM      7  C   UNL     1      -1.991   1.188  -0.006  0.00  0.00    +0.000 A 
ATOM      8  C   UNL     1      -0.765   1.840  -0.039  0.00  0.00    +0.000 A 
ATOM      9  C   UNL     1      -0.707   3.219   0.113  0.00  0.00    +0.000 A 
ATOM     10  C   UNL     1      -1.869   3.944   0.284  0.00  0.00    +0.000 A 
BRANCH   8  11
ATOM     11  N   UNL     1       0.413   1.105  -0.219  0.00  0.00    +0.000 N 
ATOM     12  C   UNL     1       0.414   0.017  -1.016  0.00  0.00    +0.000 C 
ATOM     13  O   UNL     1      -0.622  -0.371  -1.513  0.00  0.00    +0.000 OA
ATOM     14  H   UNL     1       1.280   1.395   0.256  0.00  0.00    +0.000 HD
BRANCH  12  15
ATOM     15  C   UNL     1       1.702  -0.716  -1.288  0.00  0.00    +0.000 C 
BRANCH  15  21
ATOM     16  C   UNL     1       0.604  -2.864  -1.506  0.00  0.00    +0.000 C 
ATOM     17  C   UNL     1       0.305  -4.003  -2.485  0.00  0.00    +0.000 C 
ATOM     18  O   UNL     1       1.536  -4.550  -2.963  0.00  0.00    +0.000 OA
ATOM     19  C   UNL     1       2.373  -3.595  -3.622  0.00  0.00    +0.000 C 
ATOM     20  C   UNL     1       2.694  -2.453  -2.655  0.00  0.00    +0.000 C 
ATOM     21  N   UNL     1       1.425  -1.848  -2.198  0.00  0.00    +0.000 NA
ENDBRANCH  15  21
ENDBRANCH  12  15
ENDBRANCH   8  11
ENDBRANCH   3   5
BRANCH   1  22
ATOM     22  C   UNL     1      -5.692   6.009   0.066  0.00  0.00    +0.000 C 
BRANCH  22  23
ATOM     23  S   UNL     1      -5.527   7.624  -0.742  0.00  0.00    +0.000 S 
BRANCH  23  24
ATOM     24  C   UNL     1      -7.159   8.389  -0.532  0.00  0.00    +0.000 C 
ATOM     25  C   UNL     1      -7.419   8.634   0.956  0.00  0.00    +0.000 C 
BRANCH  24  33
ATOM     26  C   UNL     1      -7.136  14.467  -3.957  0.00  0.00    +0.000 C 
ATOM     27  C   UNL     1      -7.864  13.312  -3.319  0.00  0.00    +0.000 A 
ATOM     28  C   UNL     1      -7.305  12.244  -2.706  0.00  0.00    +0.000 A 
ATOM     29  C   UNL     1      -8.418  11.467  -2.290  0.00  0.00    +0.000 A 
ATOM     30  N   UNL     1      -9.483  12.115  -2.682  0.00  0.00    +0.000 NA
ATOM     31  O   UNL     1      -9.192  13.142  -3.249  0.00  0.00    +0.000 OA
ATOM     32  N   UNL     1      -8.382  10.252  -1.605  0.00  0.00    +0.000 N 
ATOM     33  C   UNL     1      -7.198   9.701  -1.272  0.00  0.00    +0.000 C 
ATOM     34  O   UNL     1      -6.164  10.261  -1.568  0.00  0.00    +0.000 OA
ATOM     35  H   UNL     1      -9.260   9.776  -1.353  0.00  0.00    +0.000 HD
ENDBRANCH  24  33
ENDBRANCH  23  24
ENDBRANCH  22  23
ENDBRANCH   1  22
TORSDOF 8
ENDMDL
MODEL      284
REMARK  Name = ZINC02441083
REMARK  13 active torsions:
REMARK  status: ('A' for Active; 'I' for Inactive)
REMARK    1  A    between atoms: C_1  and  C_2
REMARK    2  A    between atoms: C_2  and  C_3
REMARK    3  A    between atoms: C_6  and  O_9
REMARK    4  A    between atoms: O_9  and  C_10
REMARK    5  A    between atoms: C_10  and  C_11
REMARK    6  A    between atoms: C_11  and  N_13
REMARK    7  A    between atoms: N_13  and  N_14
REMARK    8  A    between atoms: C_18  and  N_33
REMARK    9  A    between atoms: N_23  and  C1*_24
REMARK   10  A    between atoms: C2*_25  and  O2*_32
REMARK   11  A    between atoms: C3*_26  and  O3*_31
REMARK   12  A    between atoms: C4*_27  and  C5*_29
REMARK   13  A    between atoms: C5*_29  and  O5*_30
REMARK                            x       y       z     vdW  Elec       q    Type
REMARK                         _______ _______ _______ _____ _____    ______ ____
ROOT
ATOM      1  N   UNL     1      -1.116  -0.813   0.008  0.00  0.00    +0.000 N 
ATOM      2  C   UNL     1       0.002  -0.004   0.002  0.00  0.00    +0.000 A 
ATOM      3  N   UNL     1      -0.016   1.306   0.009  0.00  0.00    +0.000 NA
ATOM      4  C   UNL     1       1.258   1.773  -0.000  0.00  0.00    +0.000 A 
ATOM      5  C   UNL     1       1.837   3.053   0.001  0.00  0.00    +0.000 A 
ATOM      6  N   UNL     1       3.163   3.148  -0.012  0.00  0.00    +0.000 NA
ATOM      7  C   UNL     1       3.925   2.070  -0.025  0.00  0.00    +0.000 A 
ATOM      8  N   UNL     1       3.426   0.852  -0.026  0.00  0.00    +0.000 NA
ATOM      9  C   UNL     1       2.112   0.659  -0.015  0.00  0.00    +0.000 A 
ATOM     10  N   UNL     1       1.295  -0.449  -0.013  0.00  0.00    +0.000 N 
ATOM     11  H   UNL     1      -1.010  -1.838   0.001  0.00  0.00    +0.000 HD
ENDROOT
BRANCH  10  12
ATOM     12  C1* UNL     1       1.731  -1.847  -0.025  0.00  0.00    +0.000 C 
ATOM     13  C2* UNL     1       1.418  -2.505  -1.393  0.00  0.00    +0.000 C 
ATOM     14  C3* UNL     1       1.333  -4.005  -1.020  0.00  0.00    +0.000 C 
ATOM     15  C4* UNL     1       1.062  -4.002   0.497  0.00  0.00    +0.000 C 
ATOM     16  O4* UNL     1       0.957  -2.630   0.909  0.00  0.00    +0.000 OA
BRANCH  13  17
ATOM     17  O2* UNL     1       2.476  -2.270  -2.325  0.00  0.00    +0.000 OA
ATOM     18  H2* UNL     1       3.314  -2.649  -1.960  0.00  0.00    +0.000 HD
ENDBRANCH  13  17
BRANCH  14  19
ATOM     19  O3* UNL     1       2.567  -4.665  -1.307  0.00  0.00    +0.000 OA
ATOM     20  H3* UNL     1       3.292  -4.236  -0.786  0.00  0.00    +0.000 HD
ENDBRANCH  14  19
BRANCH  15  21
ATOM     21  C5* UNL     1      -0.247  -4.737   0.793  0.00  0.00    +0.000 C 
BRANCH  21  22
ATOM     22  O5* UNL     1      -0.439  -4.817   2.207  0.00  0.00    +0.000 OA
ATOM     23  H5* UNL     1      -0.480  -3.904   2.587  0.00  0.00    +0.000 HD
ENDBRANCH  21  22
ENDBRANCH  15  21
ENDBRANCH  10  12
BRANCH   5  24
ATOM     24  N   UNL     1       1.045   4.189   0.015  0.00  0.00    +0.000 N 
ATOM     25  H   UNL     1       0.020   4.092   0.025  0.00  0.00    +0.000 HD
ATOM     26  H   UNL     1       1.476   5.125   0.016  0.00  0.00    +0.000 HD
ENDBRANCH   5  24
BRANCH   1  27
ATOM     27  N   UNL     1      -2.395  -0.241   0.023  0.00  0.00    +0.000 NA
ATOM     28  H   UNL     1      -2.467   0.386  -0.790  0.00  0.00    +0.000 HD
ATOM     29  H   UNL     1      -2.451   0.377   0.845  0.00  0.00    +0.000 HD
BRANCH  27  30
ATOM     30  C   UNL     1      -3.520  -1.056   0.029  0.00  0.00    +0.000 C 
ATOM     31  C   UNL     1      -3.385  -2.369   0.020  0.00  0.00    +0.000 C 
BRANCH  30  32
ATOM     32  C   UNL     1      -4.896  -0.441   0.046  0.00  0.00    +0.000 C 
BRANCH  32  33
ATOM     33  O   UNL     1      -5.881  -1.476   0.049  0.00  0.00    +0.000 OA
BRANCH  33  37
ATOM     34  C   UNL     1      -9.834  -0.299   0.093  0.00  0.00    +0.000 A 
ATOM     35  C   UNL     1      -9.515  -1.644   0.082  0.00  0.00    +0.000 A 
ATOM     36  C   UNL     1      -8.191  -2.041   0.068  0.00  0.00    +0.000 A 
ATOM     37  C   UNL     1      -7.183  -1.088   0.064  0.00  0.00    +0.000 A 
ATOM     38  C   UNL     1      -7.506   0.261   0.080  0.00  0.00    +0.000 A 
ATOM     39  C   UNL     1      -8.831   0.652   0.089  0.00  0.00    +0.000 A 
BRANCH  34  41
ATOM     40  C   UNL     1     -11.754   0.268   1.557  0.00  0.00    +0.000 C 
ATOM     41  C   UNL     1     -11.279   0.131   0.109  0.00  0.00    +0.000 C 
ENDBRANCH  34  41
ENDBRANCH  33  37
ENDBRANCH  32  33
ENDBRANCH  30  32
ENDBRANCH  27  30
ENDBRANCH   1  27
TORSDOF 12
ENDMDL
MODEL      285
REMARK  Name = ZINC09746303
REMARK  8 active torsions:
REMARK  status: ('A' for Active; 'I' for Inactive)
REMARK    1  A    between atoms: C_6  and  N_7
REMARK    2  A    between atoms: C_8  and  C_10
REMARK    3  A    between atoms: C_10  and  C_11
REMARK    4  A    between atoms: C_11  and  C_12
REMARK    5  A    between atoms: N_21  and  C_22
REMARK    6  A    between atoms: C_22  and  C_23
REMARK    7  A    between atoms: C_23  and  C_24
REMARK    8  A    between atoms: C_24  and  N_25
REMARK                            x       y       z     vdW  Elec       q    Type
REMARK                         _______ _______ _______ _____ _____    ______ ____
ROOT
ATOM      1  C   UNL     1       6.007  -4.976   0.330  0.00  0.00    +0.000 A 
ATOM      2  N   UNL     1       6.712  -5.430  -0.677  0.00  0.00    +0.000 NA
ATOM      3  N   UNL     1       7.782  -6.002  -0.247  0.00  0.00    +0.000 NA
ATOM      4  C   UNL     1       7.806  -5.947   1.075  0.00  0.00    +0.000 A 
ATOM      5  N   UNL     1       6.667  -5.288   1.466  0.00  0.00    +0.000 N 
ATOM      6  N   UNL     1       6.412  -5.074   2.822  0.00  0.00    +0.000 NA
ATOM      7  C   UNL     1       7.255  -5.501   3.733  0.00  0.00    +0.000 A 
ATOM      8  C   UNL     1       8.433  -6.181   3.365  0.00  0.00    +0.000 A 
ATOM      9  C   UNL     1       8.709  -6.404   2.054  0.00  0.00    +0.000 A 
ATOM     10  N   UNL     1       6.983  -5.278   5.079  0.00  0.00    +0.000 N 
ATOM     11  H   UNL     1       6.123  -4.781   5.355  0.00  0.00    +0.000 HD
ENDROOT
BRANCH   1  12
ATOM     12  C   UNL     1       4.693  -4.244   0.237  0.00  0.00    +0.000 C 
BRANCH  12  13
ATOM     13  C   UNL     1       4.953  -2.740   0.141  0.00  0.00    +0.000 C 
BRANCH  13  15
ATOM     14  N   UNL     1       3.621  -0.663  -0.045  0.00  0.00    +0.000 N 
ATOM     15  C   UNL     1       3.639  -2.008   0.048  0.00  0.00    +0.000 C 
ATOM     16  O   UNL     1       2.597  -2.629   0.058  0.00  0.00    +0.000 OA
ATOM     17  H   UNL     1       4.505  -0.142  -0.135  0.00  0.00    +0.000 HD
BRANCH  14  23
ATOM     18  C   UNL     1       1.346  -0.460   0.740  0.00  0.00    +0.000 A 
ATOM     19  C   UNL     1       0.142   0.217   0.764  0.00  0.00    +0.000 A 
ATOM     20  C   UNL     1      -0.016   1.383   0.030  0.00  0.00    +0.000 A 
ATOM     21  C   UNL     1       1.040   1.873  -0.731  0.00  0.00    +0.000 A 
ATOM     22  C   UNL     1       2.247   1.192  -0.756  0.00  0.00    +0.000 A 
ATOM     23  C   UNL     1       2.401   0.025  -0.021  0.00  0.00    +0.000 A 
ATOM     24  O   UNL     1       0.907   3.020  -1.451  0.00  0.00    +0.000 OA
ATOM     25  C   UNL     1      -0.429   3.473  -1.700  0.00  0.00    +0.000 C 
ATOM     26  C   UNL     1      -1.215   3.395  -0.384  0.00  0.00    +0.000 C 
ATOM     27  O   UNL     1      -1.213   2.033   0.059  0.00  0.00    +0.000 OA
ENDBRANCH  14  23
ENDBRANCH  13  15
ENDBRANCH  12  13
ENDBRANCH   1  12
BRANCH  10  28
ATOM     28  C   UNL     1       7.918  -5.749   6.103  0.00  0.00    +0.000 C 
BRANCH  28  29
ATOM     29  C   UNL     1       7.385  -5.378   7.489  0.00  0.00    +0.000 C 
BRANCH  29  30
ATOM     30  C   UNL     1       8.362  -5.870   8.559  0.00  0.00    +0.000 C 
BRANCH  30  31
ATOM     31  N   UNL     1       7.852  -5.515   9.886  0.00  0.00    +0.000 N 
ATOM     32  C   UNL     1       8.161  -4.261  10.583  0.00  0.00    +0.000 C 
ATOM     33  C   UNL     1       7.092  -4.135  11.693  0.00  0.00    +0.000 C 
ATOM     34  C   UNL     1       6.710  -5.615  11.930  0.00  0.00    +0.000 C 
ATOM     35  C   UNL     1       7.046  -6.299  10.623  0.00  0.00    +0.000 C 
ATOM     36  O   UNL     1       6.647  -7.394  10.290  0.00  0.00    +0.000 OA
ENDBRANCH  30  31
ENDBRANCH  29  30
ENDBRANCH  28  29
ENDBRANCH  10  28
TORSDOF 8
ENDMDL
MODEL      286
REMARK  Name = ZINC28815873
REMARK  12 active torsions:
REMARK  status: ('A' for Active; 'I' for Inactive)
REMARK    1  A    between atoms: C_1  and  C_2
REMARK    2  A    between atoms: C_3  and  C_29
REMARK    3  A    between atoms: C_4  and  C_28
REMARK    4  A    between atoms: C_6  and  C_7
REMARK    5  A    between atoms: C_7  and  C_9
REMARK    6  A    between atoms: C_9  and  N_10
REMARK    7  A    between atoms: N_13  and  S_16
REMARK    8  A    between atoms: S_16  and  C_19
REMARK    9  A    between atoms: C_21  and  C_25
REMARK   10  A    between atoms: N_22  and  C_24
REMARK   11  A    between atoms: C_29  and  O_31
REMARK   12  A    between atoms: O_31  and  C_32
REMARK                            x       y       z     vdW  Elec       q    Type
REMARK                         _______ _______ _______ _____ _____    ______ ____
ROOT
ATOM      1  N   UNL     1      -6.999   0.164   4.327  0.00  0.00    +0.000 NA
ATOM      2  C   UNL     1      -6.495   1.398   3.711  0.00  0.00    +0.000 C 
ATOM      3  C   UNL     1      -7.164   1.595   2.346  0.00  0.00    +0.000 C 
ATOM      4  N   UNL     1      -6.965   0.375   1.549  0.00  0.00    +0.000 NA
ATOM      5  C   UNL     1      -7.326  -0.917   2.151  0.00  0.00    +0.000 C 
ATOM      6  C   UNL     1      -6.645  -1.015   3.525  0.00  0.00    +0.000 C 
ENDROOT
BRANCH   4   7
ATOM      7  S   UNL     1      -6.357   0.456   0.010  0.00  0.00    +0.000 S 
ATOM      8  O   UNL     1      -6.643   1.762  -0.471  0.00  0.00    +0.000 OA
ATOM      9  O   UNL     1      -6.797  -0.717  -0.662  0.00  0.00    +0.000 OA
BRANCH   7  10
ATOM     10  C   UNL     1      -4.604   0.337   0.136  0.00  0.00    +0.000 A 
ATOM     11  C   UNL     1      -3.715   1.406   0.287  0.00  0.00    +0.000 A 
ATOM     12  C   UNL     1      -2.445   0.872   0.340  0.00  0.00    +0.000 A 
ATOM     13  N   UNL     1      -2.565  -0.495   0.232  0.00  0.00    +0.000 N 
ATOM     14  C   UNL     1      -3.878  -0.806   0.109  0.00  0.00    +0.000 A 
ATOM     15  C   UNL     1      -1.457  -1.454   0.248  0.00  0.00    +0.000 C 
BRANCH  12  16
ATOM     16  C   UNL     1      -1.194   1.624   0.489  0.00  0.00    +0.000 C 
ATOM     17  O   UNL     1      -0.126   1.044   0.437  0.00  0.00    +0.000 OA
ATOM     18  N   UNL     1      -1.228   2.957   0.685  0.00  0.00    +0.000 N 
ATOM     19  H   UNL     1      -2.133   3.448   0.729  0.00  0.00    +0.000 HD
ATOM     20  H   UNL     1      -0.350   3.485   0.790  0.00  0.00    +0.000 HD
ENDBRANCH  12  16
ENDBRANCH   7  10
ENDBRANCH   4   7
BRANCH   1  21
ATOM     21  C   UNL     1      -6.513   0.028   5.707  0.00  0.00    +0.000 C 
BRANCH  21  22
ATOM     22  C   UNL     1      -7.238  -1.107   6.384  0.00  0.00    +0.000 C 
ATOM     23  O   UNL     1      -8.077  -1.740   5.777  0.00  0.00    +0.000 OA
BRANCH  22  29
ATOM     24  C   UNL     1      -8.600  -3.388   7.999  0.00  0.00    +0.000 C 
ATOM     25  C   UNL     1      -7.528  -2.438   8.467  0.00  0.00    +0.000 A 
ATOM     26  C   UNL     1      -6.931  -2.408   9.746  0.00  0.00    +0.000 A 
ATOM     27  C   UNL     1      -6.005  -1.379   9.741  0.00  0.00    +0.000 A 
ATOM     28  N   UNL     1      -6.014  -0.799   8.532  0.00  0.00    +0.000 N 
ATOM     29  C   UNL     1      -6.940  -1.434   7.729  0.00  0.00    +0.000 A 
ATOM     30  C   UNL     1      -5.133  -0.977  10.902  0.00  0.00    +0.000 C 
ATOM     31  H   UNL     1      -5.423  -0.005   8.247  0.00  0.00    +0.000 HD
BRANCH  26  32
ATOM     32  C   UNL     1      -7.240  -3.301  10.876  0.00  0.00    +0.000 C 
ATOM     33  O   UNL     1      -8.110  -2.999  11.669  0.00  0.00    +0.000 OA
BRANCH  32  34
ATOM     34  O   UNL     1      -6.558  -4.452  11.031  0.00  0.00    +0.000 OA
ATOM     35  C   UNL     1      -6.915  -5.283  12.167  0.00  0.00    +0.000 C 
ENDBRANCH  32  34
ENDBRANCH  26  32
ENDBRANCH  22  29
ENDBRANCH  21  22
ENDBRANCH   1  21
TORSDOF 8
ENDMDL
MODEL      287
REMARK  Name = ZINC14413199
REMARK  10 active torsions:
REMARK  status: ('A' for Active; 'I' for Inactive)
REMARK    1  A    between atoms: C_1  and  S_2
REMARK    2  A    between atoms: S_2  and  N_5
REMARK    3  A    between atoms: C_13  and  C_15
REMARK    4  A    between atoms: C_15  and  C_17
REMARK    5  A    between atoms: C_17  and  O_18
REMARK    6  A    between atoms: O_18  and  C_19
REMARK    7  A    between atoms: C_19  and  C_21
REMARK    8  A    between atoms: C_21  and  C_22
REMARK    9  A    between atoms: C_22  and  C_23
REMARK   10  A    between atoms: C_22  and  N_28
REMARK                            x       y       z     vdW  Elec       q    Type
REMARK                         _______ _______ _______ _____ _____    ______ ____
ROOT
ATOM      1  C   UNL     1      -6.980   1.159   2.909  0.00  0.00    +0.000 C 
ENDROOT
BRANCH   1   2
ATOM      2  C   UNL     1      -6.299   1.015   1.573  0.00  0.00    +0.000 C 
ATOM      3  O   UNL     1      -6.956   0.783   0.580  0.00  0.00    +0.000 OA
BRANCH   2  12
ATOM      4  N   UNL     1      -0.715   1.567   1.205  0.00  0.00    +0.000 N 
ATOM      5  C   UNL     1      -0.019   1.141  -0.016  0.00  0.00    +0.000 C 
ATOM      6  C   UNL     1      -0.818   1.658  -1.219  0.00  0.00    +0.000 C 
ATOM      7  C   UNL     1      -2.198   1.000  -1.214  0.00  0.00    +0.000 C 
ATOM      8  C   UNL     1      -2.848   1.153   0.136  0.00  0.00    +0.000 A 
ATOM      9  C   UNL     1      -2.099   1.421   1.277  0.00  0.00    +0.000 A 
ATOM     10  C   UNL     1      -2.727   1.554   2.516  0.00  0.00    +0.000 A 
ATOM     11  C   UNL     1      -4.081   1.423   2.618  0.00  0.00    +0.000 A 
ATOM     12  C   UNL     1      -4.842   1.156   1.472  0.00  0.00    +0.000 A 
ATOM     13  C   UNL     1      -4.208   1.023   0.232  0.00  0.00    +0.000 A 
BRANCH   4  15
ATOM     14  C   UNL     1       0.372   0.829   3.623  0.00  0.00    +0.000 C 
ATOM     15  S   UNL     1       0.131   2.212   2.474  0.00  0.00    +0.000 S 
ATOM     16  O   UNL     1       1.377   2.607   1.915  0.00  0.00    +0.000 OA
ATOM     17  O   UNL     1      -0.746   3.174   3.043  0.00  0.00    +0.000 OA
ENDBRANCH   4  15
ENDBRANCH   2  12
ENDBRANCH   1   2
BRANCH   1  18
ATOM     18  O   UNL     1      -8.411   0.978   2.746  0.00  0.00    +0.000 OA
BRANCH  18  19
ATOM     19  C   UNL     1      -9.168   1.076   3.850  0.00  0.00    +0.000 C 
ATOM     20  O   UNL     1      -8.652   1.305   4.918  0.00  0.00    +0.000 OA
BRANCH  19  21
ATOM     21  C   UNL     1     -10.662   0.900   3.758  0.00  0.00    +0.000 C 
BRANCH  21  22
ATOM     22  C   UNL     1     -11.281   1.060   5.148  0.00  0.00    +0.000 C 
BRANCH  22  23
ATOM     23  N   UNL     1     -11.081   2.433   5.617  0.00  0.00    +0.000 N 
ATOM     24  C   UNL     1     -11.066   2.698   6.939  0.00  0.00    +0.000 C 
ATOM     25  O   UNL     1     -11.218   1.797   7.741  0.00  0.00    +0.000 OA
ATOM     26  N   UNL     1     -10.881   3.961   7.371  0.00  0.00    +0.000 N 
ATOM     27  H   UNL     1     -10.952   3.196   4.938  0.00  0.00    +0.000 HD
ATOM     28  H   UNL     1     -10.752   4.724   6.691  0.00  0.00    +0.000 HD
ATOM     29  H   UNL     1     -10.870   4.163   8.381  0.00  0.00    +0.000 HD
ENDBRANCH  22  23
BRANCH  22  30
ATOM     30  C   UNL     1     -12.757   0.763   5.078  0.00  0.00    +0.000 A 
ATOM     31  C   UNL     1     -13.417  -0.371   5.417  0.00  0.00    +0.000 A 
ATOM     32  C   UNL     1     -14.790  -0.418   5.267  0.00  0.00    +0.000 A 
ATOM     33  C   UNL     1     -15.437   0.672   4.786  0.00  0.00    +0.000 A 
ATOM     34  S   UNL     1     -14.091   1.817   4.534  0.00  0.00    +0.000 S 
ENDBRANCH  22  30
ENDBRANCH  21  22
ENDBRANCH  19  21
ENDBRANCH  18  19
ENDBRANCH   1  18
TORSDOF 9
ENDMDL
MODEL      288
REMARK  Name = ZINC31718857
REMARK  10 active torsions:
REMARK  status: ('A' for Active; 'I' for Inactive)
REMARK    1  A    between atoms: C_1  and  O_2
REMARK    2  A    between atoms: O_2  and  C_3
REMARK    3  A    between atoms: C_6  and  S_11
REMARK    4  A    between atoms: C_8  and  O_9
REMARK    5  A    between atoms: O_9  and  C_10
REMARK    6  A    between atoms: S_11  and  N_14
REMARK    7  A    between atoms: N_14  and  C_15
REMARK    8  A    between atoms: C_15  and  C_16
REMARK    9  A    between atoms: C_16  and  C_17
REMARK   10  A    between atoms: N_19  and  C_20
REMARK                            x       y       z     vdW  Elec       q    Type
REMARK                         _______ _______ _______ _____ _____    ______ ____
ROOT
ATOM      1  C   UNL     1      -1.713   4.980  -3.332  0.00  0.00    +0.000 C 
ATOM      2  O   UNL     1      -1.375   5.817  -2.523  0.00  0.00    +0.000 OA
ATOM      3  N   UNL     1      -2.298   5.356  -4.487  0.00  0.00    +0.000 N 
ATOM      4  H   UNL     1      -2.512   4.653  -5.209  0.00  0.00    +0.000 HD
ENDROOT
BRANCH   3   5
ATOM      5  C   UNL     1      -2.616   6.704  -4.705  0.00  0.00    +0.000 A 
ATOM      6  C   UNL     1      -2.989   7.522  -3.640  0.00  0.00    +0.000 A 
ATOM      7  C   UNL     1      -3.289   8.846  -3.901  0.00  0.00    +0.000 A 
ATOM      8  C   UNL     1      -3.219   9.312  -5.210  0.00  0.00    +0.000 A 
ATOM      9  N   UNL     1      -2.865   8.505  -6.197  0.00  0.00    +0.000 NA
ATOM     10  C   UNL     1      -2.568   7.237  -5.984  0.00  0.00    +0.000 A 
ATOM     11  N   UNL     1      -3.524  10.643  -5.484  0.00  0.00    +0.000 N 
ATOM     12  C   UNL     1      -3.365  10.936  -6.917  0.00  0.00    +0.000 C 
ATOM     13  C   UNL     1      -3.999  12.296  -7.214  0.00  0.00    +0.000 C 
ATOM     14  N   UNL     1      -3.508  13.294  -6.268  0.00  0.00    +0.000 N 
ATOM     15  C   UNL     1      -2.926  12.972  -5.109  0.00  0.00    +0.000 C 
ATOM     16  O   UNL     1      -2.575  13.865  -4.367  0.00  0.00    +0.000 OA
ATOM     17  C   UNL     1      -2.689  11.550  -4.685  0.00  0.00    +0.000 C 
ATOM     18  H   UNL     1      -3.615  14.291  -6.505  0.00  0.00    +0.000 HD
ENDBRANCH   3   5
BRANCH   1  19
ATOM     19  C   UNL     1      -1.480   3.518  -3.047  0.00  0.00    +0.000 C 
BRANCH  19  20
ATOM     20  C   UNL     1      -0.807   3.367  -1.681  0.00  0.00    +0.000 C 
BRANCH  20  21
ATOM     21  N   UNL     1      -0.580   1.946  -1.403  0.00  0.00    +0.000 NA
ATOM     22  H   UNL     1      -1.063   1.229  -1.963  0.00  0.00    +0.000 HD
BRANCH  21  23
ATOM     23  S   UNL     1       0.451   1.494  -0.190  0.00  0.00    +0.000 S 
ATOM     24  O   UNL     1       0.438   0.074  -0.153  0.00  0.00    +0.000 OA
ATOM     25  O   UNL     1       1.647   2.240  -0.374  0.00  0.00    +0.000 OA
BRANCH  23  29
ATOM     26  C   UNL     1      -1.365   2.914   3.711  0.00  0.00    +0.000 A 
ATOM     27  C   UNL     1      -0.504   3.738   3.005  0.00  0.00    +0.000 A 
ATOM     28  C   UNL     1       0.053   3.299   1.818  0.00  0.00    +0.000 A 
ATOM     29  C   UNL     1      -0.256   2.044   1.327  0.00  0.00    +0.000 A 
ATOM     30  C   UNL     1      -1.115   1.218   2.028  0.00  0.00    +0.000 A 
ATOM     31  C   UNL     1      -1.672   1.649   3.221  0.00  0.00    +0.000 A 
BRANCH  26  33
ATOM     32  C   UNL     1      -1.550   4.652   5.324  0.00  0.00    +0.000 C 
ATOM     33  O   UNL     1      -1.910   3.342   4.882  0.00  0.00    +0.000 OA
ENDBRANCH  26  33
BRANCH  31  34
ATOM     34  O   UNL     1      -2.518   0.837   3.911  0.00  0.00    +0.000 OA
ATOM     35  C   UNL     1      -2.787  -0.448   3.347  0.00  0.00    +0.000 C 
ENDBRANCH  31  34
ENDBRANCH  23  29
ENDBRANCH  21  23
ENDBRANCH  20  21
ENDBRANCH  19  20
ENDBRANCH   1  19
TORSDOF 8
ENDMDL
MODEL      289
REMARK  Name = ZINC29665193
REMARK  9 active torsions:
REMARK  status: ('A' for Active; 'I' for Inactive)
REMARK    1  A    between atoms: C_3  and  C_6
REMARK    2  A    between atoms: C_9  and  S_16
REMARK    3  A    between atoms: N_10  and  C_11
REMARK    4  A    between atoms: C_11  and  C_12
REMARK    5  A    between atoms: C_12  and  C_13
REMARK    6  A    between atoms: S_16  and  C_17
REMARK    7  A    between atoms: C_17  and  C_18
REMARK    8  A    between atoms: N_20  and  C_21
REMARK    9  A    between atoms: C_26  and  N_27
REMARK                            x       y       z     vdW  Elec       q    Type
REMARK                         _______ _______ _______ _____ _____    ______ ____
ROOT
ATOM      1  S   UNL     1       3.123   7.791   0.101  0.00  0.00    +0.000 S 
ENDROOT
BRANCH   1   5
ATOM      2  C   UNL     1       6.420   9.864  -0.238  0.00  0.00    +0.000 A 
ATOM      3  N   UNL     1       6.841   8.626  -0.371  0.00  0.00    +0.000 NA
ATOM      4  N   UNL     1       5.850   7.813  -0.275  0.00  0.00    +0.000 NA
ATOM      5  C   UNL     1       4.734   8.480  -0.084  0.00  0.00    +0.000 A 
ATOM      6  N   UNL     1       5.056   9.808  -0.050  0.00  0.00    +0.000 N 
BRANCH   2   9
ATOM      7  C   UNL     1       8.973  12.483  -0.271  0.00  0.00    +0.000 A 
ATOM      8  C   UNL     1       8.605  11.127  -0.174  0.00  0.00    +0.000 A 
ATOM      9  C   UNL     1       7.248  11.079  -0.281  0.00  0.00    +0.000 A 
ATOM     10  O   UNL     1       6.796  12.341  -0.426  0.00  0.00    +0.000 OA
ATOM     11  C   UNL     1       7.836  13.191  -0.420  0.00  0.00    +0.000 A 
ENDBRANCH   2   9
BRANCH   6  12
ATOM     12  C   UNL     1       4.142  10.936   0.146  0.00  0.00    +0.000 C 
BRANCH  12  13
ATOM     13  C   UNL     1       4.025  11.244   1.641  0.00  0.00    +0.000 C 
BRANCH  13  14
ATOM     14  C   UNL     1       3.084  12.404   1.842  0.00  0.00    +0.000 C 
ATOM     15  O   UNL     1       2.560  12.933   0.885  0.00  0.00    +0.000 OA
ATOM     16  N   UNL     1       2.826  12.854   3.086  0.00  0.00    +0.000 N 
ATOM     17  H   UNL     1       3.272  12.405   3.899  0.00  0.00    +0.000 HD
ATOM     18  H   UNL     1       2.184  13.647   3.224  0.00  0.00    +0.000 HD
ENDBRANCH  13  14
ENDBRANCH  12  13
ENDBRANCH   6  12
ENDBRANCH   1   5
BRANCH   1  19
ATOM     19  C   UNL     1       3.514   6.031  -0.060  0.00  0.00    +0.000 C 
BRANCH  19  20
ATOM     20  C   UNL     1       2.249   5.222   0.069  0.00  0.00    +0.000 C 
ATOM     21  O   UNL     1       1.188   5.780   0.252  0.00  0.00    +0.000 OA
ATOM     22  N   UNL     1       2.298   3.878  -0.018  0.00  0.00    +0.000 N 
ATOM     23  H   UNL     1       3.207   3.399  -0.092  0.00  0.00    +0.000 HD
BRANCH  22  24
ATOM     24  C   UNL     1       1.111   3.132  -0.009  0.00  0.00    +0.000 A 
ATOM     25  C   UNL     1      -0.031   3.638  -0.614  0.00  0.00    +0.000 A 
ATOM     26  C   UNL     1      -1.203   2.901  -0.604  0.00  0.00    +0.000 A 
ATOM     27  C   UNL     1      -1.232   1.649   0.008  0.00  0.00    +0.000 A 
ATOM     28  C   UNL     1      -0.091   1.151   0.615  0.00  0.00    +0.000 A 
ATOM     29  C   UNL     1       1.079   1.888   0.606  0.00  0.00    +0.000 A 
ATOM     30  O   UNL     1      -2.490   1.134  -0.113  0.00  0.00    +0.000 OA
ATOM     31  C   UNL     1      -3.334   2.250  -0.454  0.00  0.00    +0.000 C 
ATOM     32  O   UNL     1      -2.441   3.164  -1.117  0.00  0.00    +0.000 OA
BRANCH  29  33
ATOM     33  N   UNL     1       2.297   1.349   1.250  0.00  0.00    +0.000 N 
ATOM     34  O   UNL     1       2.247   0.300   1.867  0.00  0.00    +0.000 OA
ATOM     35  O   UNL     1       3.350   1.955   1.165  0.00  0.00    +0.000 OA
ENDBRANCH  29  33
ENDBRANCH  22  24
ENDBRANCH  19  20
ENDBRANCH   1  19
TORSDOF 9
ENDMDL
MODEL      290
REMARK  Name = ZINC27341948
REMARK  9 active torsions:
REMARK  status: ('A' for Active; 'I' for Inactive)
REMARK    1  A    between atoms: C_1  and  O_2
REMARK    2  A    between atoms: O_2  and  C_3
REMARK    3  A    between atoms: C_7  and  C_9
REMARK    4  A    between atoms: C_9  and  C_10
REMARK    5  A    between atoms: C_9  and  N_28
REMARK    6  A    between atoms: C_10  and  N_11
REMARK    7  A    between atoms: C_12  and  C_14
REMARK    8  A    between atoms: C_16  and  S_19
REMARK    9  A    between atoms: S_19  and  N_22
REMARK                            x       y       z     vdW  Elec       q    Type
REMARK                         _______ _______ _______ _____ _____    ______ ____
ROOT
ATOM      1  N   UNL     1       0.147   7.534  -1.191  0.00  0.00    +0.000 N 
ATOM      2  C   UNL     1       0.284   8.335  -2.267  0.00  0.00    +0.000 C 
ATOM      3  O   UNL     1       0.225   7.865  -3.387  0.00  0.00    +0.000 OA
ATOM      4  H   UNL     1       0.198   7.933  -0.243  0.00  0.00    +0.000 HD
ENDROOT
BRANCH   2   5
ATOM      5  C   UNL     1       0.505   9.774  -2.086  0.00  0.00    +0.000 A 
ATOM      6  C   UNL     1       0.667  10.706  -3.089  0.00  0.00    +0.000 A 
ATOM      7  C   UNL     1       0.846  11.948  -2.472  0.00  0.00    +0.000 A 
ATOM      8  C   UNL     1       0.801  11.755  -1.131  0.00  0.00    +0.000 A 
ATOM      9  N   UNL     1       0.594  10.439  -0.884  0.00  0.00    +0.000 N 
ATOM     10  H   UNL     1       0.516  10.008   0.048  0.00  0.00    +0.000 HD
BRANCH   7  11
ATOM     11  S   UNL     1       1.094  13.488  -3.291  0.00  0.00    +0.000 S 
ATOM     12  O   UNL     1       0.530  13.353  -4.588  0.00  0.00    +0.000 OA
ATOM     13  O   UNL     1       0.684  14.501  -2.384  0.00  0.00    +0.000 OA
BRANCH  11  14
ATOM     14  N   UNL     1       2.726  13.673  -3.501  0.00  0.00    +0.000 NA
ATOM     15  C   UNL     1       3.549  14.345  -2.483  0.00  0.00    +0.000 C 
ATOM     16  C   UNL     1       4.751  13.441  -2.164  0.00  0.00    +0.000 C 
ATOM     17  O   UNL     1       5.410  13.090  -3.383  0.00  0.00    +0.000 OA
ATOM     18  C   UNL     1       4.603  12.333  -4.289  0.00  0.00    +0.000 C 
ATOM     19  C   UNL     1       3.395  13.176  -4.714  0.00  0.00    +0.000 C 
ENDBRANCH  11  14
ENDBRANCH   7  11
ENDBRANCH   2   5
BRANCH   1  20
ATOM     20  C   UNL     1      -0.073   6.097  -1.371  0.00  0.00    +0.000 C 
BRANCH  20  21
ATOM     21  C   UNL     1      -0.360   5.451  -0.015  0.00  0.00    +0.000 C 
BRANCH  21  22
ATOM     22  N   UNL     1      -1.603   6.004   0.538  0.00  0.00    +0.000 N 
ATOM     23  C   UNL     1      -2.067   5.209   1.704  0.00  0.00    +0.000 C 
ATOM     24  C   UNL     1      -3.014   6.186   2.445  0.00  0.00    +0.000 C 
ATOM     25  C   UNL     1      -2.306   7.550   2.273  0.00  0.00    +0.000 C 
ATOM     26  C   UNL     1      -1.394   7.378   1.044  0.00  0.00    +0.000 C 
ATOM     27  H   UNL     1      -2.292   5.986  -0.227  0.00  0.00    +0.000 HD
ENDBRANCH  21  22
BRANCH  21  32
ATOM     28  C   UNL     1       0.368   1.744   0.072  0.00  0.00    +0.000 A 
ATOM     29  C   UNL     1      -0.779   1.226  -0.512  0.00  0.00    +0.000 A 
ATOM     30  C   UNL     1      -1.782   2.076  -0.935  0.00  0.00    +0.000 A 
ATOM     31  C   UNL     1      -1.647   3.442  -0.769  0.00  0.00    +0.000 A 
ATOM     32  C   UNL     1      -0.505   3.961  -0.188  0.00  0.00    +0.000 A 
ATOM     33  C   UNL     1       0.503   3.115   0.233  0.00  0.00    +0.000 A 
BRANCH  28  35
ATOM     34  C   UNL     1       1.151  -0.490   0.287  0.00  0.00    +0.000 C 
ATOM     35  O   UNL     1       1.358   0.910   0.485  0.00  0.00    +0.000 OA
ENDBRANCH  28  35
ENDBRANCH  21  32
ENDBRANCH  20  21
ENDBRANCH   1  20
TORSDOF 8
ENDMDL
MODEL      291
REMARK  Name = ZINC15914966
REMARK  13 active torsions:
REMARK  status: ('A' for Active; 'I' for Inactive)
REMARK    1  A    between atoms: C_1  and  C_2
REMARK    2  A    between atoms: C_2  and  C_3
REMARK    3  A    between atoms: C_2  and  O_4
REMARK    4  A    between atoms: O_4  and  C_5
REMARK    5  A    between atoms: C_8  and  C_11
REMARK    6  A    between atoms: N_13  and  N_14
REMARK    7  A    between atoms: C_15  and  C_17
REMARK    8  A    between atoms: C_17  and  N_18
REMARK    9  A    between atoms: N_18  and  C_19
REMARK   10  A    between atoms: N_18  and  S_20
REMARK   11  A    between atoms: S_20  and  C_23
REMARK   12  A    between atoms: C_26  and  N_29
REMARK   13  A    between atoms: C_30  and  C_32
REMARK                            x       y       z     vdW  Elec       q    Type
REMARK                         _______ _______ _______ _____ _____    ______ ____
ROOT
ATOM      1  N   UNL     1      -4.809   0.311  -1.006  0.00  0.00    +0.000 N 
ATOM      2  C   UNL     1      -3.731   1.107  -0.860  0.00  0.00    +0.000 C 
ATOM      3  O   UNL     1      -3.758   2.023  -0.066  0.00  0.00    +0.000 OA
ATOM      4  H   UNL     1      -4.786  -0.468  -1.680  0.00  0.00    +0.000 HD
ENDROOT
BRANCH   1   7
ATOM      5  C   UNL     1      -7.038  -0.252  -0.390  0.00  0.00    +0.000 C 
ATOM      6  O   UNL     1      -7.012  -1.171  -1.185  0.00  0.00    +0.000 OA
ATOM      7  N   UNL     1      -5.960   0.543  -0.243  0.00  0.00    +0.000 N 
ATOM      8  H   UNL     1      -5.983   1.322   0.431  0.00  0.00    +0.000 HD
BRANCH   5  12
ATOM      9  C   UNL     1     -10.528   0.453   1.925  0.00  0.00    +0.000 A 
ATOM     10  C   UNL     1     -10.500  -0.599   1.016  0.00  0.00    +0.000 A 
ATOM     11  C   UNL     1      -9.370  -0.831   0.264  0.00  0.00    +0.000 A 
ATOM     12  C   UNL     1      -8.251  -0.007   0.415  0.00  0.00    +0.000 A 
ATOM     13  C   UNL     1      -8.282   1.045   1.333  0.00  0.00    +0.000 A 
ATOM     14  C   UNL     1      -9.418   1.274   2.078  0.00  0.00    +0.000 A 
BRANCH   9  15
ATOM     15  O   UNL     1     -11.644   0.678   2.665  0.00  0.00    +0.000 OA
BRANCH  15  17
ATOM     16  C   UNL     1     -13.683  -0.194   3.624  0.00  0.00    +0.000 C 
ATOM     17  C   UNL     1     -12.781  -0.142   2.389  0.00  0.00    +0.000 C 
ATOM     18  C   UNL     1     -13.561   0.446   1.212  0.00  0.00    +0.000 C 
ENDBRANCH  15  17
ENDBRANCH   9  15
ENDBRANCH   5  12
ENDBRANCH   1   7
BRANCH   2  19
ATOM     19  C   UNL     1      -2.493   0.857  -1.681  0.00  0.00    +0.000 C 
BRANCH  19  20
ATOM     20  N   UNL     1      -1.471   1.849  -1.339  0.00  0.00    +0.000 NA
ATOM     21  C   UNL     1      -1.472   3.158  -1.996  0.00  0.00    +0.000 C 
BRANCH  20  22
ATOM     22  S   UNL     1      -0.314   1.491  -0.209  0.00  0.00    +0.000 S 
ATOM     23  O   UNL     1      -0.205   0.075  -0.174  0.00  0.00    +0.000 OA
ATOM     24  O   UNL     1       0.796   2.334  -0.483  0.00  0.00    +0.000 OA
BRANCH  22  25
ATOM     25  C   UNL     1      -0.947   1.986   1.359  0.00  0.00    +0.000 A 
ATOM     26  C   UNL     1      -0.708   3.265   1.827  0.00  0.00    +0.000 A 
ATOM     27  C   UNL     1      -1.207   3.658   3.054  0.00  0.00    +0.000 A 
ATOM     28  C   UNL     1      -1.941   2.764   3.822  0.00  0.00    +0.000 A 
ATOM     29  C   UNL     1      -2.174   1.478   3.352  0.00  0.00    +0.000 A 
ATOM     30  C   UNL     1      -1.677   1.093   2.122  0.00  0.00    +0.000 A 
BRANCH  28  31
ATOM     31  N   UNL     1      -2.444   3.157   5.067  0.00  0.00    +0.000 N 
ATOM     32  C   UNL     1      -2.504   2.270   6.080  0.00  0.00    +0.000 C 
ATOM     33  O   UNL     1      -2.193   1.113   5.892  0.00  0.00    +0.000 OA
ATOM     34  C   UNL     1      -2.957   2.717   7.446  0.00  0.00    +0.000 C 
ATOM     35  H   UNL     1      -2.768   4.124   5.209  0.00  0.00    +0.000 HD
ENDBRANCH  28  31
ENDBRANCH  22  25
ENDBRANCH  20  22
ENDBRANCH  19  20
ENDBRANCH   2  19
TORSDOF 9
ENDMDL
MODEL      292
REMARK  Name = ZINC28900425
REMARK  10 active torsions:
REMARK  status: ('A' for Active; 'I' for Inactive)
REMARK    1  A    between atoms: C_4  and  N_7
REMARK    2  A    between atoms: C_8  and  C_10
REMARK    3  A    between atoms: N_13  and  C_16
REMARK    4  A    between atoms: C_16  and  C_17
REMARK    5  A    between atoms: C_17  and  C_18
REMARK    6  A    between atoms: N_20  and  C_21
REMARK    7  A    between atoms: C_21  and  C_22
REMARK    8  A    between atoms: C_22  and  C_23
REMARK    9  A    between atoms: C_26  and  S_29
REMARK   10  A    between atoms: S_29  and  N_32
REMARK                            x       y       z     vdW  Elec       q    Type
REMARK                         _______ _______ _______ _____ _____    ______ ____
ROOT
ATOM      1  C   UNL     1       7.572   8.327   1.988  0.00  0.00    +0.000 C 
ENDROOT
BRANCH   1   2
ATOM      2  C   UNL     1       8.813   9.182   2.031  0.00  0.00    +0.000 C 
ATOM      3  O   UNL     1       8.947  10.095   1.244  0.00  0.00    +0.000 OA
ATOM      4  N   UNL     1       9.773   8.931   2.942  0.00  0.00    +0.000 N 
ATOM      5  H   UNL     1       9.659   8.155   3.610  0.00  0.00    +0.000 HD
BRANCH   4   6
ATOM      6  C   UNL     1      10.979   9.762   2.983  0.00  0.00    +0.000 C 
BRANCH   6   7
ATOM      7  C   UNL     1      11.900   9.269   4.101  0.00  0.00    +0.000 C 
BRANCH   7   8
ATOM      8  C   UNL     1      13.140  10.123   4.143  0.00  0.00    +0.000 A 
ATOM      9  C   UNL     1      14.249   9.770   3.397  0.00  0.00    +0.000 A 
ATOM     10  C   UNL     1      15.385  10.556   3.432  0.00  0.00    +0.000 A 
ATOM     11  C   UNL     1      15.416  11.691   4.221  0.00  0.00    +0.000 A 
ATOM     12  C   UNL     1      14.310  12.041   4.972  0.00  0.00    +0.000 A 
ATOM     13  C   UNL     1      13.172  11.257   4.933  0.00  0.00    +0.000 A 
BRANCH  11  14
ATOM     14  S   UNL     1      16.866  12.691   4.270  0.00  0.00    +0.000 S 
ATOM     15  O   UNL     1      17.569  12.447   3.059  0.00  0.00    +0.000 OA
ATOM     16  O   UNL     1      16.450  13.992   4.660  0.00  0.00    +0.000 OA
BRANCH  14  17
ATOM     17  N   UNL     1      17.820  12.112   5.494  0.00  0.00    +0.000 NA
ATOM     18  H   UNL     1      17.737  11.129   5.790  0.00  0.00    +0.000 HD
ATOM     19  H   UNL     1      18.495  12.735   5.959  0.00  0.00    +0.000 HD
ENDBRANCH  14  17
ENDBRANCH  11  14
ENDBRANCH   7   8
ENDBRANCH   6   7
ENDBRANCH   4   6
ENDBRANCH   1   2
BRANCH   1  20
ATOM     20  C   UNL     1       6.651   8.820   0.871  0.00  0.00    +0.000 C 
BRANCH  20  24
ATOM     21  C   UNL     1       3.628   5.998  -0.217  0.00  0.00    +0.000 C 
ATOM     22  C   UNL     1       4.498   5.734   1.014  0.00  0.00    +0.000 C 
ATOM     23  C   UNL     1       5.782   6.561   0.913  0.00  0.00    +0.000 C 
ATOM     24  N   UNL     1       5.442   7.987   0.830  0.00  0.00    +0.000 N 
ATOM     25  C   UNL     1       4.646   8.273  -0.371  0.00  0.00    +0.000 C 
ATOM     26  C   UNL     1       3.329   7.497  -0.309  0.00  0.00    +0.000 C 
ATOM     27  H   UNL     1       4.866   8.222   1.651  0.00  0.00    +0.000 HD
BRANCH  21  29
ATOM     28  N   UNL     1       2.356   3.889  -0.001  0.00  0.00    +0.000 N 
ATOM     29  C   UNL     1       2.336   5.233  -0.095  0.00  0.00    +0.000 C 
ATOM     30  O   UNL     1       1.278   5.827  -0.082  0.00  0.00    +0.000 OA
ATOM     31  H   UNL     1       3.254   3.390   0.070  0.00  0.00    +0.000 HD
BRANCH  28  35
ATOM     32  C   UNL     1      -1.221   1.752   0.012  0.00  0.00    +0.000 A 
ATOM     33  C   UNL     1      -1.114   2.914  -0.730  0.00  0.00    +0.000 A 
ATOM     34  C   UNL     1       0.070   3.626  -0.735  0.00  0.00    +0.000 A 
ATOM     35  C   UNL     1       1.155   3.170   0.002  0.00  0.00    +0.000 A 
ATOM     36  C   UNL     1       1.046   2.000   0.742  0.00  0.00    +0.000 A 
ATOM     37  C   UNL     1      -0.141   1.293   0.742  0.00  0.00    +0.000 A 
ENDBRANCH  28  35
ENDBRANCH  21  29
ENDBRANCH  20  24
ENDBRANCH   1  20
TORSDOF 10
ENDMDL
MODEL      293
REMARK  Name = ZINC25049844
REMARK  10 active torsions:
REMARK  status: ('A' for Active; 'I' for Inactive)
REMARK    1  A    between atoms: C_1  and  C_2
REMARK    2  A    between atoms: C_3  and  C_13
REMARK    3  A    between atoms: N_15  and  N_16
REMARK    4  A    between atoms: C_17  and  C_19
REMARK    5  A    between atoms: C_19  and  C_20
REMARK    6  A    between atoms: C_20  and  C_21
REMARK    7  A    between atoms: C_21  and  N_22
REMARK    8  A    between atoms: C_23  and  C_25
REMARK    9  A    between atoms: C_28  and  O_31
REMARK   10  A    between atoms: O_31  and  C_32
REMARK                            x       y       z     vdW  Elec       q    Type
REMARK                         _______ _______ _______ _____ _____    ______ ____
ROOT
ATOM      1  N   UNL     1       5.623  -8.094  -0.094  0.00  0.00    +0.000 N 
ATOM      2  C   UNL     1       5.355  -6.773  -0.084  0.00  0.00    +0.000 C 
ATOM      3  O   UNL     1       6.263  -5.970  -0.089  0.00  0.00    +0.000 OA
ATOM      4  H   UNL     1       4.851  -8.776  -0.090  0.00  0.00    +0.000 HD
ENDROOT
BRANCH   1   7
ATOM      5  C   UNL     1       7.220  -9.860  -0.118  0.00  0.00    +0.000 C 
ATOM      6  O   UNL     1       6.308 -10.666  -0.113  0.00  0.00    +0.000 OA
ATOM      7  N   UNL     1       6.952  -8.539  -0.109  0.00  0.00    +0.000 N 
ATOM      8  H   UNL     1       7.723  -7.857  -0.113  0.00  0.00    +0.000 HD
BRANCH   5  11
ATOM      9  C   UNL     1       8.186 -12.810  -0.129  0.00  0.00    +0.000 C 
ATOM     10  C   UNL     1       9.108 -11.618  -0.140  0.00  0.00    +0.000 A 
ATOM     11  C   UNL     1       8.606 -10.324  -0.134  0.00  0.00    +0.000 A 
ATOM     12  S   UNL     1      10.126  -9.383  -0.144  0.00  0.00    +0.000 S 
ATOM     13  C   UNL     1      11.225 -10.726  -0.161  0.00  0.00    +0.000 A 
ATOM     14  N   UNL     1      10.407 -11.768  -0.158  0.00  0.00    +0.000 NA
ATOM     15  N   UNL     1      12.604 -10.713  -0.173  0.00  0.00    +0.000 N 
ATOM     16  C   UNL     1      13.148 -11.473   0.961  0.00  0.00    +0.000 C 
ATOM     17  C   UNL     1      14.677 -11.482   0.875  0.00  0.00    +0.000 C 
ATOM     18  O   UNL     1      15.156 -10.135   0.847  0.00  0.00    +0.000 OA
ATOM     19  C   UNL     1      14.646  -9.366  -0.245  0.00  0.00    +0.000 C 
ATOM     20  C   UNL     1      13.117  -9.335  -0.171  0.00  0.00    +0.000 C 
ENDBRANCH   5  11
ENDBRANCH   1   7
BRANCH   2  21
ATOM     21  C   UNL     1       3.926  -6.295  -0.068  0.00  0.00    +0.000 C 
BRANCH  21  22
ATOM     22  C   UNL     1       3.901  -4.765  -0.060  0.00  0.00    +0.000 C 
BRANCH  22  23
ATOM     23  C   UNL     1       2.450  -4.279  -0.043  0.00  0.00    +0.000 C 
BRANCH  23  24
ATOM     24  N   UNL     1       2.425  -2.814  -0.036  0.00  0.00    +0.000 N 
ATOM     25  C   UNL     1       1.247  -2.160  -0.021  0.00  0.00    +0.000 C 
ATOM     26  O   UNL     1       0.204  -2.785  -0.014  0.00  0.00    +0.000 OA
ATOM     27  H   UNL     1       3.309  -2.285  -0.042  0.00  0.00    +0.000 HD
BRANCH  25  28
ATOM     28  C   UNL     1       1.223  -0.684  -0.013  0.00  0.00    +0.000 A 
ATOM     29  C   UNL     1       0.002  -0.004   0.002  0.00  0.00    +0.000 A 
ATOM     30  C   UNL     1      -0.017   1.373   0.010  0.00  0.00    +0.000 A 
ATOM     31  C   UNL     1       1.177   2.086   0.002  0.00  0.00    +0.000 A 
ATOM     32  C   UNL     1       2.393   1.413  -0.013  0.00  0.00    +0.000 A 
ATOM     33  C   UNL     1       2.420   0.036  -0.021  0.00  0.00    +0.000 A 
BRANCH  31  34
ATOM     34  O   UNL     1       1.154   3.443   0.010  0.00  0.00    +0.000 OA
ATOM     35  C   UNL     1       2.416   4.113   0.001  0.00  0.00    +0.000 C 
ENDBRANCH  31  34
ENDBRANCH  25  28
ENDBRANCH  23  24
ENDBRANCH  22  23
ENDBRANCH  21  22
ENDBRANCH   2  21
TORSDOF 8
ENDMDL
MODEL      294
REMARK  Name = ZINC22380203
REMARK  13 active torsions:
REMARK  status: ('A' for Active; 'I' for Inactive)
REMARK    1  A    between atoms: C_1  and  C_2
REMARK    2  A    between atoms: C_2  and  C_3
REMARK    3  A    between atoms: C_2  and  C_4
REMARK    4  A    between atoms: C_4  and  C_5
REMARK    5  A    between atoms: C_5  and  N_6
REMARK    6  A    between atoms: N_6  and  C_7
REMARK    7  A    between atoms: C_8  and  N_22
REMARK    8  A    between atoms: N_9  and  C_15
REMARK    9  A    between atoms: C_15  and  C_16
REMARK   10  A    between atoms: C_23  and  C_25
REMARK   11  A    between atoms: C_25  and  N_26
REMARK   12  A    between atoms: C_29  and  C_32
REMARK   13  A    between atoms: C_32  and  C_34
REMARK                            x       y       z     vdW  Elec       q    Type
REMARK                         _______ _______ _______ _____ _____    ______ ____
ROOT
ATOM      1  C   UNL     1       3.357   2.711   1.142  0.00  0.00    +0.000 A 
ATOM      2  C   UNL     1       3.697   1.645   0.334  0.00  0.00    +0.000 A 
ATOM      3  N   UNL     1       3.001   1.439  -0.834  0.00  0.00    +0.000 N 
ATOM      4  C   UNL     1       1.994   2.261  -1.180  0.00  0.00    +0.000 A 
ATOM      5  O   UNL     1       1.387   2.060  -2.215  0.00  0.00    +0.000 OA
ATOM      6  N   UNL     1       1.645   3.302  -0.403  0.00  0.00    +0.000 N 
ATOM      7  C   UNL     1       2.299   3.551   0.749  0.00  0.00    +0.000 A 
ATOM      8  O   UNL     1       1.975   4.497   1.446  0.00  0.00    +0.000 OA
ATOM      9  H   UNL     1       0.871   3.916  -0.692  0.00  0.00    +0.000 HD
ENDROOT
BRANCH   1  10
ATOM     10  N   UNL     1       4.056   2.951   2.344  0.00  0.00    +0.000 N 
ATOM     11  C   UNL     1       3.424   2.821   3.529  0.00  0.00    +0.000 C 
ATOM     12  O   UNL     1       2.234   2.587   3.559  0.00  0.00    +0.000 OA
BRANCH  10  13
ATOM     13  C   UNL     1       5.467   3.342   2.305  0.00  0.00    +0.000 C 
BRANCH  13  14
ATOM     14  C   UNL     1       5.576   4.867   2.372  0.00  0.00    +0.000 C 
BRANCH  14  16
ATOM     15  C   UNL     1       7.155   6.800   2.272  0.00  0.00    +0.000 C 
ATOM     16  C   UNL     1       7.050   5.275   2.332  0.00  0.00    +0.000 C 
ATOM     17  C   UNL     1       7.755   4.764   3.589  0.00  0.00    +0.000 C 
ENDBRANCH  14  16
ENDBRANCH  13  14
ENDBRANCH  10  13
BRANCH  11  18
ATOM     18  C   UNL     1       4.196   2.967   4.815  0.00  0.00    +0.000 C 
BRANCH  18  19
ATOM     19  N   UNL     1       3.291   2.784   5.952  0.00  0.00    +0.000 N 
ATOM     20  C   UNL     1       2.678   3.837   6.456  0.00  0.00    +0.000 A 
ATOM     21  C   UNL     1       1.812   3.710   7.524  0.00  0.00    +0.000 A 
ATOM     22  C   UNL     1       1.599   2.441   8.078  0.00  0.00    +0.000 A 
ATOM     23  C   UNL     1       2.275   1.353   7.513  0.00  0.00    +0.000 A 
ATOM     24  C   UNL     1       3.119   1.572   6.442  0.00  0.00    +0.000 A 
BRANCH  22  25
ATOM     25  C   UNL     1       0.686   2.256   9.222  0.00  0.00    +0.000 C 
ATOM     26  O   UNL     1       0.514   1.154   9.686  0.00  0.00    +0.000 OA
ATOM     27  C   UNL     1      -0.031   3.442   9.814  0.00  0.00    +0.000 C 
ENDBRANCH  22  25
ENDBRANCH  18  19
ENDBRANCH  11  18
ENDBRANCH   1  10
BRANCH   2  28
ATOM     28  N   UNL     1       4.722   0.801   0.691  0.00  0.00    +0.000 N 
ATOM     29  H   UNL     1       5.239   0.967   1.566  0.00  0.00    +0.000 HD
ATOM     30  H   UNL     1       4.973   0.007   0.085  0.00  0.00    +0.000 HD
ENDBRANCH   2  28
BRANCH   3  31
ATOM     31  C   UNL     1       3.354   0.314  -1.704  0.00  0.00    +0.000 C 
BRANCH  31  32
ATOM     32  C   UNL     1       4.392   0.757  -2.702  0.00  0.00    +0.000 A 
ATOM     33  C   UNL     1       4.001   1.271  -3.924  0.00  0.00    +0.000 A 
ATOM     34  C   UNL     1       4.954   1.682  -4.837  0.00  0.00    +0.000 A 
ATOM     35  C   UNL     1       6.297   1.569  -4.533  0.00  0.00    +0.000 A 
ATOM     36  C   UNL     1       6.689   1.049  -3.313  0.00  0.00    +0.000 A 
ATOM     37  C   UNL     1       5.736   0.643  -2.397  0.00  0.00    +0.000 A 
ENDBRANCH  31  32
ENDBRANCH   3  31
TORSDOF 10
ENDMDL
MODEL      295
REMARK  Name = ZINC16298324
REMARK  11 active torsions:
REMARK  status: ('A' for Active; 'I' for Inactive)
REMARK    1  A    between atoms: C_1  and  C_2
REMARK    2  A    between atoms: C_5  and  S_8
REMARK    3  A    between atoms: S_8  and  N_11
REMARK    4  A    between atoms: N_11  and  C_12
REMARK    5  A    between atoms: C_12  and  C_13
REMARK    6  A    between atoms: N_15  and  C_16
REMARK    7  A    between atoms: C_16  and  C_17
REMARK    8  A    between atoms: N_19  and  C_20
REMARK    9  A    between atoms: C_20  and  C_21
REMARK   10  A    between atoms: C_24  and  C_26
REMARK   11  A    between atoms: C_29  and  C_31
REMARK                            x       y       z     vdW  Elec       q    Type
REMARK                         _______ _______ _______ _____ _____    ______ ____
ROOT
ATOM      1  C   UNL     1      -1.614   3.488  -2.988  0.00  0.00    +0.000 C 
ATOM      2  O   UNL     1      -1.759   2.522  -3.706  0.00  0.00    +0.000 OA
ATOM      3  N   UNL     1      -1.891   4.722  -3.454  0.00  0.00    +0.000 N 
ATOM      4  H   UNL     1      -1.768   5.543  -2.844  0.00  0.00    +0.000 HD
ENDROOT
BRANCH   1   5
ATOM      5  C   UNL     1      -1.125   3.309  -1.574  0.00  0.00    +0.000 C 
BRANCH   5   6
ATOM      6  N   UNL     1      -0.897   1.885  -1.312  0.00  0.00    +0.000 NA
ATOM      7  H   UNL     1      -1.285   1.176  -1.951  0.00  0.00    +0.000 HD
BRANCH   6   8
ATOM      8  S   UNL     1      -0.017   1.417   0.010  0.00  0.00    +0.000 S 
ATOM      9  O   UNL     1       0.002  -0.004   0.002  0.00  0.00    +0.000 OA
ATOM     10  O   UNL     1       1.172   2.195   0.003  0.00  0.00    +0.000 OA
BRANCH   8  15
ATOM     11  C   UNL     1      -3.131   3.072   4.906  0.00  0.00    +0.000 C 
ATOM     12  C   UNL     1      -2.353   2.659   3.683  0.00  0.00    +0.000 A 
ATOM     13  C   UNL     1      -2.559   1.412   3.121  0.00  0.00    +0.000 A 
ATOM     14  C   UNL     1      -1.846   1.033   2.000  0.00  0.00    +0.000 A 
ATOM     15  C   UNL     1      -0.927   1.900   1.439  0.00  0.00    +0.000 A 
ATOM     16  C   UNL     1      -0.717   3.145   2.004  0.00  0.00    +0.000 A 
ATOM     17  C   UNL     1      -1.434   3.526   3.123  0.00  0.00    +0.000 A 
ENDBRANCH   8  15
ENDBRANCH   6   8
ENDBRANCH   5   6
ENDBRANCH   1   5
BRANCH   3  18
ATOM     18  C   UNL     1      -2.367   4.896  -4.829  0.00  0.00    +0.000 C 
BRANCH  18  19
ATOM     19  C   UNL     1      -2.601   6.360  -5.098  0.00  0.00    +0.000 C 
ATOM     20  O   UNL     1      -2.391   7.178  -4.227  0.00  0.00    +0.000 OA
ATOM     21  N   UNL     1      -3.043   6.761  -6.306  0.00  0.00    +0.000 N 
ATOM     22  H   UNL     1      -3.222   6.066  -7.045  0.00  0.00    +0.000 HD
BRANCH  21  23
ATOM     23  C   UNL     1      -3.271   8.184  -6.567  0.00  0.00    +0.000 C 
BRANCH  23  24
ATOM     24  C   UNL     1      -3.760   8.363  -7.981  0.00  0.00    +0.000 A 
ATOM     25  C   UNL     1      -5.048   8.355  -8.373  0.00  0.00    +0.000 A 
ATOM     26  C   UNL     1      -5.057   8.556  -9.769  0.00  0.00    +0.000 A 
ATOM     27  C   UNL     1      -3.759   8.676 -10.155  0.00  0.00    +0.000 A 
ATOM     28  O   UNL     1      -2.984   8.564  -9.060  0.00  0.00    +0.000 OA
BRANCH  27  29
ATOM     29  C   UNL     1      -3.282   8.899 -11.537  0.00  0.00    +0.000 A 
ATOM     30  C   UNL     1      -1.944   9.012 -11.814  0.00  0.00    +0.000 A 
ATOM     31  S   UNL     1      -1.995   9.258 -13.583  0.00  0.00    +0.000 S 
ATOM     32  C   UNL     1      -3.719   9.200 -13.774  0.00  0.00    +0.000 A 
ATOM     33  N   UNL     1      -4.134   9.002 -12.546  0.00  0.00    +0.000 NA
ATOM     34  C   UNL     1      -4.534   9.341 -15.033  0.00  0.00    +0.000 C 
ENDBRANCH  27  29
ENDBRANCH  23  24
ENDBRANCH  21  23
ENDBRANCH  18  19
ENDBRANCH   3  18
TORSDOF 9
ENDMDL
MODEL      296
REMARK  Name = ZINC09467478
REMARK  10 active torsions:
REMARK  status: ('A' for Active; 'I' for Inactive)
REMARK    1  A    between atoms: C_3  and  O_27
REMARK    2  A    between atoms: C_6  and  C_7
REMARK    3  A    between atoms: C_10  and  S_13
REMARK    4  A    between atoms: N_11  and  N_12
REMARK    5  A    between atoms: S_13  and  C_14
REMARK    6  A    between atoms: C_14  and  C_15
REMARK    7  A    between atoms: N_17  and  C_18
REMARK    8  A    between atoms: C_18  and  C_19
REMARK    9  A    between atoms: C_19  and  N_20
REMARK   10  A    between atoms: O_27  and  C_28
REMARK                            x       y       z     vdW  Elec       q    Type
REMARK                         _______ _______ _______ _____ _____    ______ ____
ROOT
ATOM      1  C   UNL     1       0.002  -0.004   0.002  0.00  0.00    +0.000 A 
ATOM      2  N   UNL     1       1.035  -0.772   0.262  0.00  0.00    +0.000 NA
ATOM      3  N   UNL     1       0.698  -2.008   0.164  0.00  0.00    +0.000 NA
ATOM      4  C   UNL     1      -0.571  -2.106  -0.163  0.00  0.00    +0.000 A 
ATOM      5  N   UNL     1      -1.060  -0.835  -0.273  0.00  0.00    +0.000 N 
ENDROOT
BRANCH   1  11
ATOM      6  C   UNL     1      -1.235   2.157   0.020  0.00  0.00    +0.000 A 
ATOM      7  C   UNL     1      -1.250   3.536   0.033  0.00  0.00    +0.000 A 
ATOM      8  C   UNL     1      -0.056   4.245   0.025  0.00  0.00    +0.000 A 
ATOM      9  C   UNL     1       1.157   3.568   0.010  0.00  0.00    +0.000 A 
ATOM     10  C   UNL     1       1.180   2.190   0.003  0.00  0.00    +0.000 A 
ATOM     11  C   UNL     1      -0.018   1.474   0.010  0.00  0.00    +0.000 A 
BRANCH   8  12
ATOM     12  O   UNL     1      -0.074   5.603   0.033  0.00  0.00    +0.000 OA
BRANCH  12  13
ATOM     13  C   UNL     1      -1.356   6.234   0.048  0.00  0.00    +0.000 C 
ATOM     14  F   UNL     1      -2.077   5.855  -1.089  0.00  0.00    +0.000 F 
ATOM     15  F   UNL     1      -2.054   5.843   1.195  0.00  0.00    +0.000 F 
ENDBRANCH  12  13
ENDBRANCH   8  12
ENDBRANCH   1  11
BRANCH   5  16
ATOM     16  N   UNL     1      -2.335  -0.466  -0.593  0.00  0.00    +0.000 N 
ATOM     17  H   UNL     1      -2.497   0.551  -0.625  0.00  0.00    +0.000 HD
ATOM     18  H   UNL     1      -3.092  -1.137  -0.789  0.00  0.00    +0.000 HD
ENDBRANCH   5  16
BRANCH   4  19
ATOM     19  S   UNL     1      -1.475  -3.598  -0.408  0.00  0.00    +0.000 S 
BRANCH  19  20
ATOM     20  C   UNL     1      -0.172  -4.812  -0.083  0.00  0.00    +0.000 C 
BRANCH  20  21
ATOM     21  C   UNL     1      -0.732  -6.203  -0.238  0.00  0.00    +0.000 C 
ATOM     22  O   UNL     1      -1.896  -6.358  -0.539  0.00  0.00    +0.000 OA
ATOM     23  N   UNL     1       0.062  -7.274  -0.042  0.00  0.00    +0.000 N 
ATOM     24  H   UNL     1       1.051  -7.142   0.214  0.00  0.00    +0.000 HD
BRANCH  23  25
ATOM     25  C   UNL     1      -0.481  -8.626  -0.193  0.00  0.00    +0.000 C 
BRANCH  25  26
ATOM     26  C   UNL     1       0.620  -9.652   0.082  0.00  0.00    +0.000 C 
BRANCH  26  27
ATOM     27  N   UNL     1       0.076 -11.004  -0.069  0.00  0.00    +0.000 N 
ATOM     28  C   UNL     1      -0.443 -11.594   0.995  0.00  0.00    +0.000 C 
ATOM     29  O   UNL     1      -0.481 -11.056   2.081  0.00  0.00    +0.000 OA
ATOM     30  C   UNL     1      -0.991 -12.995   0.762  0.00  0.00    +0.000 C 
ATOM     31  S   UNL     1      -0.618 -13.185  -1.027  0.00  0.00    +0.000 S 
ATOM     32  C   UNL     1       0.135 -11.585  -1.282  0.00  0.00    +0.000 C 
ATOM     33  O   UNL     1       0.594 -11.127  -2.310  0.00  0.00    +0.000 OA
ENDBRANCH  26  27
ENDBRANCH  25  26
ENDBRANCH  23  25
ENDBRANCH  20  21
ENDBRANCH  19  20
ENDBRANCH   4  19
TORSDOF 10
ENDMDL
MODEL      297
REMARK  Name = ZINC10742404
REMARK  8 active torsions:
REMARK  status: ('A' for Active; 'I' for Inactive)
REMARK    1  A    between atoms: C_4  and  N_7
REMARK    2  A    between atoms: C_12  and  C_13
REMARK    3  A    between atoms: C_12  and  N_34
REMARK    4  A    between atoms: C_13  and  C_14
REMARK    5  A    between atoms: N_16  and  N_17
REMARK    6  A    between atoms: C_18  and  C_20
REMARK    7  A    between atoms: C_20  and  C_21
REMARK    8  A    between atoms: C_21  and  N_22
REMARK                            x       y       z     vdW  Elec       q    Type
REMARK                         _______ _______ _______ _____ _____    ______ ____
ROOT
ATOM      1  C   UNL     1      -0.513   1.424  -4.808  0.00  0.00    +0.000 C 
ATOM      2  O   UNL     1       0.481   0.741  -4.933  0.00  0.00    +0.000 OA
ATOM      3  N   UNL     1      -0.966   1.736  -3.578  0.00  0.00    +0.000 N 
ATOM      4  H   UNL     1      -1.811   2.317  -3.472  0.00  0.00    +0.000 HD
ENDROOT
BRANCH   3   5
ATOM      5  N   UNL     1      -0.288   1.272  -2.443  0.00  0.00    +0.000 N 
ATOM      6  C   UNL     1      -0.742   1.585  -1.213  0.00  0.00    +0.000 C 
ATOM      7  O   UNL     1      -1.736   2.268  -1.088  0.00  0.00    +0.000 OA
ATOM      8  H   UNL     1       0.556   0.692  -2.549  0.00  0.00    +0.000 HD
BRANCH   6   9
ATOM      9  C   UNL     1      -0.013   1.086   0.008  0.00  0.00    +0.000 C 
BRANCH   9  10
ATOM     10  C   UNL     1      -0.729   1.579   1.267  0.00  0.00    +0.000 C 
BRANCH  10  11
ATOM     11  N   UNL     1      -0.020   1.094   2.454  0.00  0.00    +0.000 N 
ATOM     12  C   UNL     1       0.994   1.860   3.009  0.00  0.00    +0.000 A 
ATOM     13  C   UNL     1       1.361   3.082   2.467  0.00  0.00    +0.000 A 
ATOM     14  C   UNL     1       2.377   3.813   3.051  0.00  0.00    +0.000 A 
ATOM     15  C   UNL     1       3.035   3.337   4.175  0.00  0.00    +0.000 A 
ATOM     16  C   UNL     1       2.684   2.124   4.727  0.00  0.00    +0.000 A 
ATOM     17  C   UNL     1       1.661   1.376   4.148  0.00  0.00    +0.000 A 
ATOM     18  C   UNL     1       1.247   0.073   4.698  0.00  0.00    +0.000 A 
ATOM     19  O   UNL     1       1.790  -0.391   5.681  0.00  0.00    +0.000 OA
ATOM     20  N   UNL     1       0.246  -0.593   4.080  0.00  0.00    +0.000 N 
ATOM     21  C   UNL     1      -0.363  -0.086   2.997  0.00  0.00    +0.000 A 
ATOM     22  O   UNL     1      -1.261  -0.725   2.483  0.00  0.00    +0.000 OA
ATOM     23  H   UNL     1      -0.054  -1.507   4.448  0.00  0.00    +0.000 HD
ENDBRANCH  10  11
ENDBRANCH   9  10
ENDBRANCH   6   9
ENDBRANCH   3   5
BRANCH   1  24
ATOM     24  C   UNL     1      -1.242   1.923  -6.029  0.00  0.00    +0.000 C 
BRANCH  24  25
ATOM     25  C   UNL     1      -0.526   1.429  -7.288  0.00  0.00    +0.000 C 
BRANCH  25  31
ATOM     26  N   UNL     1      -2.525   1.651 -11.003  0.00  0.00    +0.000 N 
ATOM     27  C   UNL     1      -1.190   2.257 -10.902  0.00  0.00    +0.000 C 
ATOM     28  C   UNL     1      -0.454   1.667  -9.697  0.00  0.00    +0.000 C 
ATOM     29  C   UNL     1      -2.571   1.310  -8.579  0.00  0.00    +0.000 C 
ATOM     30  C   UNL     1      -3.307   1.901  -9.784  0.00  0.00    +0.000 C 
ATOM     31  N   UNL     1      -1.240   1.944  -8.476  0.00  0.00    +0.000 N 
ATOM     32  H   UNL     1      -1.360   2.962  -8.379  0.00  0.00    +0.000 HD
BRANCH  26  36
ATOM     33  C   UNL     1      -4.539   3.031 -14.376  0.00  0.00    +0.000 A 
ATOM     34  C   UNL     1      -5.149   2.121 -13.532  0.00  0.00    +0.000 A 
ATOM     35  C   UNL     1      -4.484   1.661 -12.413  0.00  0.00    +0.000 A 
ATOM     36  C   UNL     1      -3.200   2.114 -12.134  0.00  0.00    +0.000 A 
ATOM     37  C   UNL     1      -2.593   3.033 -12.981  0.00  0.00    +0.000 A 
ATOM     38  C   UNL     1      -3.262   3.485 -14.101  0.00  0.00    +0.000 A 
ENDBRANCH  26  36
ENDBRANCH  25  31
ENDBRANCH  24  25
ENDBRANCH   1  24
TORSDOF 8
ENDMDL
MODEL      298
REMARK  Name = ZINC30856580
REMARK  12 active torsions:
REMARK  status: ('A' for Active; 'I' for Inactive)
REMARK    1  A    between atoms: C_1  and  C_2
REMARK    2  A    between atoms: C_2  and  N_3
REMARK    3  A    between atoms: N_3  and  C_4
REMARK    4  A    between atoms: N_3  and  C_16
REMARK    5  A    between atoms: C_4  and  C_5
REMARK    6  A    between atoms: C_16  and  C_17
REMARK    7  A    between atoms: C_18  and  C_30
REMARK    8  A    between atoms: C_19  and  C_24
REMARK    9  A    between atoms: C_27  and  C_29
REMARK   10  A    between atoms: C_30  and  O_32
REMARK   11  A    between atoms: O_32  and  C_33
REMARK   12  A    between atoms: C_33  and  C_34
REMARK                            x       y       z     vdW  Elec       q    Type
REMARK                         _______ _______ _______ _____ _____    ______ ____
ROOT
ATOM      1  C   UNL     1       3.212  -6.478   0.035  0.00  0.00    +0.000 C 
ATOM      2  C   UNL     1       3.213  -6.928   1.308  0.00  0.00    +0.000 C 
ATOM      3  C   UNL     1       4.425  -7.705   1.780  0.00  0.00    +0.000 C 
ATOM      4  N   UNL     1       5.515  -7.896   0.809  0.00  0.00    +0.000 N 
ATOM      5  C   UNL     1       5.370  -7.381  -0.428  0.00  0.00    +0.000 C 
ATOM      6  O   UNL     1       6.264  -7.533  -1.237  0.00  0.00    +0.000 OA
ATOM      7  N   UNL     1       4.273  -6.706  -0.794  0.00  0.00    +0.000 N 
ATOM      8  H   UNL     1       6.368  -8.412   1.068  0.00  0.00    +0.000 HD
ATOM      9  H   UNL     1       4.227  -6.338  -1.756  0.00  0.00    +0.000 HD
ENDROOT
BRANCH   3  10
ATOM     10  C   UNL     1       3.963  -9.066   2.234  0.00  0.00    +0.000 A 
ATOM     11  C   UNL     1       3.623  -9.402   3.491  0.00  0.00    +0.000 A 
ATOM     12  C   UNL     1       3.254 -10.767   3.464  0.00  0.00    +0.000 A 
ATOM     13  C   UNL     1       3.392 -11.183   2.192  0.00  0.00    +0.000 A 
ATOM     14  O   UNL     1       3.816 -10.147   1.451  0.00  0.00    +0.000 OA
ATOM     15  C   UNL     1       3.110 -12.573   1.685  0.00  0.00    +0.000 C 
ENDBRANCH   3  10
BRANCH   2  16
ATOM     16  C   UNL     1       2.117  -6.688   2.169  0.00  0.00    +0.000 C 
ATOM     17  O   UNL     1       1.108  -6.163   1.738  0.00  0.00    +0.000 OA
BRANCH  16  18
ATOM     18  O   UNL     1       2.192  -7.040   3.470  0.00  0.00    +0.000 OA
BRANCH  18  19
ATOM     19  C   UNL     1       1.048  -6.767   4.282  0.00  0.00    +0.000 C 
ATOM     20  C   UNL     1       1.317  -7.232   5.715  0.00  0.00    +0.000 C 
ENDBRANCH  18  19
ENDBRANCH  16  18
ENDBRANCH   2  16
BRANCH   1  21
ATOM     21  C   UNL     1       2.024  -5.705  -0.478  0.00  0.00    +0.000 C 
BRANCH  21  22
ATOM     22  N   UNL     1       0.999  -6.643  -0.954  0.00  0.00    +0.000 NA
BRANCH  22  24
ATOM     23  C   UNL     1      -0.966  -5.484  -0.063  0.00  0.00    +0.000 C 
ATOM     24  C   UNL     1      -0.231  -5.933  -1.328  0.00  0.00    +0.000 C 
ENDBRANCH  22  24
BRANCH  22  25
ATOM     25  C   UNL     1       1.502  -7.450  -2.074  0.00  0.00    +0.000 C 
BRANCH  25  26
ATOM     26  C   UNL     1       0.526  -8.557  -2.374  0.00  0.00    +0.000 A 
ATOM     27  N   UNL     1       0.817  -9.417  -3.385  0.00  0.00    +0.000 N 
ATOM     28  C   UNL     1      -0.027 -10.428  -3.695  0.00  0.00    +0.000 A 
ATOM     29  O   UNL     1       0.221 -11.205  -4.599  0.00  0.00    +0.000 OA
ATOM     30  C   UNL     1      -1.257 -10.551  -2.898  0.00  0.00    +0.000 A 
ATOM     31  C   UNL     1      -2.191 -11.558  -3.135  0.00  0.00    +0.000 A 
ATOM     32  C   UNL     1      -3.326 -11.627  -2.356  0.00  0.00    +0.000 A 
ATOM     33  C   UNL     1      -3.544 -10.704  -1.342  0.00  0.00    +0.000 A 
ATOM     34  C   UNL     1      -2.633  -9.703  -1.091  0.00  0.00    +0.000 A 
ATOM     35  C   UNL     1      -1.475  -9.612  -1.866  0.00  0.00    +0.000 A 
ATOM     36  N   UNL     1      -0.551  -8.642  -1.654  0.00  0.00    +0.000 NA
ATOM     37  H   UNL     1       1.689  -9.297  -3.921  0.00  0.00    +0.000 HD
ENDBRANCH  25  26
ENDBRANCH  22  25
ENDBRANCH  21  22
ENDBRANCH   1  21
TORSDOF 9
ENDMDL
MODEL      299
REMARK  Name = ZINC27290598
REMARK  9 active torsions:
REMARK  status: ('A' for Active; 'I' for Inactive)
REMARK    1  A    between atoms: C_1  and  C_2
REMARK    2  A    between atoms: N_4  and  C_5
REMARK    3  A    between atoms: N_9  and  C_11
REMARK    4  A    between atoms: C_11  and  C_23
REMARK    5  A    between atoms: C_12  and  N_13
REMARK    6  A    between atoms: N_13  and  C_14
REMARK    7  A    between atoms: C_14  and  C_15
REMARK    8  A    between atoms: C_23  and  C_25
REMARK    9  A    between atoms: C_29  and  N_31
REMARK                            x       y       z     vdW  Elec       q    Type
REMARK                         _______ _______ _______ _____ _____    ______ ____
ROOT
ATOM      1  C   UNL     1       1.006   5.763   0.225  0.00  0.00    +0.000 C 
ATOM      2  C   UNL     1       0.827   7.137   0.372  0.00  0.00    +0.000 C 
ATOM      3  S   UNL     1      -0.800   7.810   0.454  0.00  0.00    +0.000 SA
ENDROOT
BRANCH   1   8
ATOM      4  C   UNL     1       3.958   4.128  -1.060  0.00  0.00    +0.000 A 
ATOM      5  C   UNL     1       4.808   4.194   0.043  0.00  0.00    +0.000 A 
ATOM      6  C   UNL     1       4.343   4.800   1.200  0.00  0.00    +0.000 A 
ATOM      7  C   UNL     1       3.063   5.316   1.227  0.00  0.00    +0.000 A 
ATOM      8  N   UNL     1       2.276   5.238   0.161  0.00  0.00    +0.000 N 
ATOM      9  C   UNL     1       2.682   4.661  -0.962  0.00  0.00    +0.000 A 
BRANCH   4  13
ATOM     10  C   UNL     1       5.789   1.908  -3.487  0.00  0.00    +0.000 C 
ATOM     11  C   UNL     1       5.239   2.483  -2.207  0.00  0.00    +0.000 C 
ATOM     12  O   UNL     1       5.566   2.009  -1.140  0.00  0.00    +0.000 OA
ATOM     13  N   UNL     1       4.385   3.525  -2.249  0.00  0.00    +0.000 N 
ATOM     14  H   UNL     1       4.046   3.877  -3.155  0.00  0.00    +0.000 HD
ENDBRANCH   4  13
ENDBRANCH   1   8
BRANCH   2  15
ATOM     15  N   UNL     1       1.914   7.964   0.453  0.00  0.00    +0.000 N 
ATOM     16  H   UNL     1       2.865   7.571   0.405  0.00  0.00    +0.000 HD
BRANCH  15  17
ATOM     17  C   UNL     1       1.726   9.409   0.608  0.00  0.00    +0.000 C 
BRANCH  17  18
ATOM     18  C   UNL     1       3.070  10.087   0.671  0.00  0.00    +0.000 A 
ATOM     19  C   UNL     1       3.691  10.276   1.892  0.00  0.00    +0.000 A 
ATOM     20  C   UNL     1       4.926  10.893   1.950  0.00  0.00    +0.000 A 
ATOM     21  C   UNL     1       5.537  11.332   0.787  0.00  0.00    +0.000 A 
ATOM     22  C   UNL     1       4.911  11.146  -0.434  0.00  0.00    +0.000 A 
ATOM     23  C   UNL     1       3.679  10.524  -0.491  0.00  0.00    +0.000 A 
ATOM     24  F   UNL     1       6.742  11.940   0.844  0.00  0.00    +0.000 F 
ENDBRANCH  17  18
ENDBRANCH  15  17
ENDBRANCH   2  15
BRANCH   1  25
ATOM     25  C   UNL     1      -0.114   4.912   0.142  0.00  0.00    +0.000 C 
ATOM     26  O   UNL     1      -1.236   5.384   0.087  0.00  0.00    +0.000 OA
BRANCH  25  27
ATOM     27  C   UNL     1       0.073   3.444   0.122  0.00  0.00    +0.000 A 
ATOM     28  C   UNL     1       1.154   2.865   0.789  0.00  0.00    +0.000 A 
ATOM     29  C   UNL     1       1.323   1.497   0.766  0.00  0.00    +0.000 A 
ATOM     30  C   UNL     1       0.423   0.697   0.083  0.00  0.00    +0.000 A 
ATOM     31  C   UNL     1      -0.647   1.264  -0.585  0.00  0.00    +0.000 A 
ATOM     32  C   UNL     1      -0.830   2.632  -0.564  0.00  0.00    +0.000 A 
BRANCH  31  33
ATOM     33  N   UNL     1      -1.601   0.402  -1.318  0.00  0.00    +0.000 N 
ATOM     34  O   UNL     1      -1.443  -0.806  -1.332  0.00  0.00    +0.000 OA
ATOM     35  O   UNL     1      -2.544   0.900  -1.907  0.00  0.00    +0.000 OA
ENDBRANCH  31  33
ENDBRANCH  25  27
ENDBRANCH   1  25
TORSDOF 8
ENDMDL
MODEL      300
REMARK  Name = ZINC23476760
REMARK  9 active torsions:
REMARK  status: ('A' for Active; 'I' for Inactive)
REMARK    1  A    between atoms: C_1  and  C_2
REMARK    2  A    between atoms: C_2  and  C_22
REMARK    3  A    between atoms: N_5  and  C_9
REMARK    4  A    between atoms: C_9  and  N_10
REMARK    5  A    between atoms: N_13  and  C_16
REMARK    6  A    between atoms: C_16  and  C_17
REMARK    7  A    between atoms: C_25  and  O_28
REMARK    8  A    between atoms: O_28  and  C_29
REMARK    9  A    between atoms: C_29  and  C_30
REMARK                            x       y       z     vdW  Elec       q    Type
REMARK                         _______ _______ _______ _____ _____    ______ ____
ROOT
ATOM      1  C   UNL     1       1.761  -1.221   1.235  0.00  0.00    +0.000 C 
ATOM      2  C   UNL     1       1.419  -0.406  -0.014  0.00  0.00    +0.000 C 
ATOM      3  C   UNL     1       2.164   0.914  -0.014  0.00  0.00    +0.000 C 
ATOM      4  O   UNL     1       3.365   1.077  -0.025  0.00  0.00    +0.000 OA
ATOM      5  N   UNL     1       1.213   1.869   0.001  0.00  0.00    +0.000 N 
ATOM      6  C   UNL     1      -0.016   1.341   0.009  0.00  0.00    +0.000 C 
ATOM      7  O   UNL     1      -1.036   2.003   0.018  0.00  0.00    +0.000 OA
ATOM      8  N   UNL     1       0.002  -0.004   0.002  0.00  0.00    +0.000 NA
ENDROOT
BRANCH   2   9
ATOM      9  C   UNL     1       1.734  -1.192  -1.260  0.00  0.00    +0.000 A 
ATOM     10  C   UNL     1       2.993  -1.115  -1.825  0.00  0.00    +0.000 A 
ATOM     11  C   UNL     1       3.285  -1.840  -2.965  0.00  0.00    +0.000 A 
ATOM     12  C   UNL     1       2.310  -2.635  -3.549  0.00  0.00    +0.000 A 
ATOM     13  C   UNL     1       1.046  -2.706  -2.983  0.00  0.00    +0.000 A 
ATOM     14  C   UNL     1       0.760  -1.985  -1.840  0.00  0.00    +0.000 A 
BRANCH  12  15
ATOM     15  O   UNL     1       2.594  -3.345  -4.673  0.00  0.00    +0.000 OA
BRANCH  15  16
ATOM     16  C   UNL     1       3.917  -3.224  -5.200  0.00  0.00    +0.000 C 
BRANCH  16  17
ATOM     17  C   UNL     1       4.044  -4.075  -6.437  0.00  0.00    +0.000 C 
ATOM     18  O   UNL     1       3.096  -4.721  -6.829  0.00  0.00    +0.000 OA
ATOM     19  N   UNL     1       5.212  -4.117  -7.108  0.00  0.00    +0.000 N 
ATOM     20  H   UNL     1       6.018  -3.568  -6.776  0.00  0.00    +0.000 HD
ATOM     21  H   UNL     1       5.300  -4.699  -7.954  0.00  0.00    +0.000 HD
ENDBRANCH  16  17
ENDBRANCH  15  16
ENDBRANCH  12  15
ENDBRANCH   2   9
BRANCH   5  22
ATOM     22  C   UNL     1       1.491   3.307   0.005  0.00  0.00    +0.000 C 
BRANCH  22  23
ATOM     23  N   UNL     1       1.598   3.781   1.391  0.00  0.00    +0.000 NA
ATOM     24  C   UNL     1       0.268   4.014   1.971  0.00  0.00    +0.000 C 
ATOM     25  C   UNL     1       0.419   4.430   3.437  0.00  0.00    +0.000 C 
ATOM     26  N   UNL     1       1.245   5.643   3.516  0.00  0.00    +0.000 N 
ATOM     27  C   UNL     1       2.575   5.410   2.936  0.00  0.00    +0.000 C 
ATOM     28  C   UNL     1       2.424   4.994   1.471  0.00  0.00    +0.000 C 
ATOM     29  H   UNL     1       0.782   6.379   2.965  0.00  0.00    +0.000 HD
BRANCH  26  30
ATOM     30  C   UNL     1       1.351   6.117   4.903  0.00  0.00    +0.000 C 
BRANCH  30  31
ATOM     31  C   UNL     1      -0.002   6.576   5.382  0.00  0.00    +0.000 A 
ATOM     32  C   UNL     1      -0.396   7.891   5.215  0.00  0.00    +0.000 A 
ATOM     33  C   UNL     1      -1.621   8.270   5.652  0.00  0.00    +0.000 A 
ATOM     34  S   UNL     1      -2.256   6.748   6.337  0.00  0.00    +0.000 S 
ATOM     35  C   UNL     1      -0.848   5.708   5.987  0.00  0.00    +0.000 A 
ENDBRANCH  30  31
ENDBRANCH  26  30
ENDBRANCH  22  23
ENDBRANCH   5  22
TORSDOF 8
ENDMDL
MODEL      301
REMARK  Name = ZINC05667259
REMARK  7 active torsions:
REMARK  status: ('A' for Active; 'I' for Inactive)
REMARK    1  A    between atoms: C_2  and  C_3
REMARK    2  A    between atoms: C_2  and  N_23
REMARK    3  A    between atoms: N_9  and  C_12
REMARK    4  A    between atoms: C_19  and  C_20
REMARK    5  A    between atoms: C_19  and  N_23
REMARK    6  A    between atoms: C_20  and  C_21
REMARK    7  A    between atoms: C_21  and  O_22
REMARK                            x       y       z     vdW  Elec       q    Type
REMARK                         _______ _______ _______ _____ _____    ______ ____
ROOT
ATOM      1  C   UNL     1       0.006   3.892  -0.459  0.00  0.00    +0.000 A 
ATOM      2  C   UNL     1       1.236   3.210   0.108  0.00  0.00    +0.000 A 
ATOM      3  O   UNL     1       2.304   3.781   0.160  0.00  0.00    +0.000 OA
ATOM      4  N   UNL     1       1.098   1.943   0.553  0.00  0.00    +0.000 N 
ATOM      5  C   UNL     1      -0.073   1.299   0.504  0.00  0.00    +0.000 A 
ATOM      6  O   UNL     1      -0.108   0.160   0.926  0.00  0.00    +0.000 OA
ATOM      7  N   UNL     1      -1.208   1.815   0.018  0.00  0.00    +0.000 N 
ATOM      8  C   UNL     1      -1.271   3.072  -0.468  0.00  0.00    +0.000 A 
ATOM      9  O   UNL     1      -2.308   3.528  -0.901  0.00  0.00    +0.000 OA
ATOM     10  H   UNL     1       1.919   1.458   0.943  0.00  0.00    +0.000 HD
ENDROOT
BRANCH   7  11
ATOM     11  C   UNL     1      -2.369   1.027   0.019  0.00  0.00    +0.000 A 
ATOM     12  C   UNL     1      -2.667   0.227  -1.075  0.00  0.00    +0.000 A 
ATOM     13  C   UNL     1      -3.808  -0.552  -1.069  0.00  0.00    +0.000 A 
ATOM     14  C   UNL     1      -4.659  -0.526   0.022  0.00  0.00    +0.000 A 
ATOM     15  C   UNL     1      -4.366   0.275   1.112  0.00  0.00    +0.000 A 
ATOM     16  C   UNL     1      -3.224   1.051   1.113  0.00  0.00    +0.000 A 
ATOM     17 CL   UNL     1      -6.096  -1.500   0.024  0.00  0.00    +0.000 Cl
ENDBRANCH   7  11
BRANCH   1  19
ATOM     18  C   UNL     1       0.250   5.577  -2.221  0.00  0.00    +0.000 C 
ATOM     19  C   UNL     1       0.309   4.304  -1.877  0.00  0.00    +0.000 C 
BRANCH  19  20
ATOM     20  N   UNL     1       0.653   3.273  -2.801  0.00  0.00    +0.000 NA
ATOM     21  H   UNL     1       1.479   2.774  -2.442  0.00  0.00    +0.000 HD
ATOM     22  H   UNL     1      -0.119   2.593  -2.837  0.00  0.00    +0.000 HD
BRANCH  20  23
ATOM     23  C   UNL     1       0.945   3.744  -4.199  0.00  0.00    +0.000 C 
BRANCH  23  24
ATOM     24  C   UNL     1       1.289   2.505  -5.027  0.00  0.00    +0.000 C 
BRANCH  24  25
ATOM     25  C   UNL     1       1.597   2.923  -6.467  0.00  0.00    +0.000 C 
BRANCH  25  26
ATOM     26  O   UNL     1       1.918   1.766  -7.241  0.00  0.00    +0.000 OA
ATOM     27  H   UNL     1       1.150   1.141  -7.236  0.00  0.00    +0.000 HD
ENDBRANCH  25  26
ENDBRANCH  24  25
ENDBRANCH  23  24
ENDBRANCH  20  23
ENDBRANCH  19  20
ENDBRANCH   1  19
TORSDOF 7
ENDMDL
MODEL      302
REMARK  Name = ZINC26836082
REMARK  10 active torsions:
REMARK  status: ('A' for Active; 'I' for Inactive)
REMARK    1  A    between atoms: C_1  and  C_2
REMARK    2  A    between atoms: C_4  and  N_10
REMARK    3  A    between atoms: N_7  and  C_8
REMARK    4  A    between atoms: N_10  and  C_11
REMARK    5  A    between atoms: C_13  and  C_21
REMARK    6  A    between atoms: C_15  and  C_17
REMARK    7  A    between atoms: C_17  and  O_19
REMARK    8  A    between atoms: O_19  and  C_20
REMARK    9  A    between atoms: C_21  and  O_23
REMARK   10  A    between atoms: O_23  and  C_24
REMARK                            x       y       z     vdW  Elec       q    Type
REMARK                         _______ _______ _______ _____ _____    ______ ____
ROOT
ATOM      1  C   UNL     1      -2.504  -3.999   0.058  0.00  0.00    +0.000 A 
ATOM      2  C   UNL     1      -1.428  -4.642   0.652  0.00  0.00    +0.000 A 
ATOM      3  C   UNL     1      -0.214  -3.972   0.814  0.00  0.00    +0.000 A 
ATOM      4  C   UNL     1      -0.084  -2.655   0.377  0.00  0.00    +0.000 A 
ATOM      5  C   UNL     1      -1.167  -2.011  -0.219  0.00  0.00    +0.000 A 
ATOM      6  C   UNL     1      -2.380  -2.686  -0.372  0.00  0.00    +0.000 A 
ENDROOT
BRANCH   1   7
ATOM      7  N   UNL     1      -3.719  -4.674  -0.102  0.00  0.00    +0.000 N 
ATOM      8  H   UNL     1      -3.724  -5.673  -0.352  0.00  0.00    +0.000 HD
BRANCH   7  12
ATOM      9  C   UNL     1      -8.623  -4.689   0.320  0.00  0.00    +0.000 C 
ATOM     10  C   UNL     1      -7.294  -3.980   0.283  0.00  0.00    +0.000 A 
ATOM     11  C   UNL     1      -6.125  -4.695   0.103  0.00  0.00    +0.000 A 
ATOM     12  C   UNL     1      -4.916  -3.998   0.077  0.00  0.00    +0.000 A 
ATOM     13  N   UNL     1      -4.928  -2.677   0.230  0.00  0.00    +0.000 NA
ATOM     14  C   UNL     1      -6.071  -2.028   0.395  0.00  0.00    +0.000 A 
ATOM     15  N   UNL     1      -7.233  -2.664   0.425  0.00  0.00    +0.000 N 
ATOM     16  C   UNL     1      -8.469  -1.900   0.616  0.00  0.00    +0.000 C 
ATOM     17  N   UNL     1      -6.050  -0.653   0.546  0.00  0.00    +0.000 N 
ATOM     18  H   UNL     1      -5.158  -0.138   0.531  0.00  0.00    +0.000 HD
ATOM     19  H   UNL     1      -6.935  -0.141   0.675  0.00  0.00    +0.000 HD
ENDBRANCH   7  12
ENDBRANCH   1   7
BRANCH   5  20
ATOM     20  C   UNL     1      -1.034  -0.615  -0.684  0.00  0.00    +0.000 C 
ATOM     21  O   UNL     1      -1.978  -0.055  -1.204  0.00  0.00    +0.000 OA
BRANCH  20  22
ATOM     22  O   UNL     1       0.135   0.037  -0.531  0.00  0.00    +0.000 OA
ATOM     23  C   UNL     1       0.194   1.406  -1.011  0.00  0.00    +0.000 C 
ENDBRANCH  20  22
ENDBRANCH   5  20
BRANCH   3  24
ATOM     24  C   UNL     1       0.932  -4.657   1.447  0.00  0.00    +0.000 C 
ATOM     25  O   UNL     1       0.818  -5.805   1.827  0.00  0.00    +0.000 OA
BRANCH  24  26
ATOM     26  O   UNL     1       2.102  -4.010   1.603  0.00  0.00    +0.000 OA
ATOM     27  C   UNL     1       3.184  -4.745   2.233  0.00  0.00    +0.000 C 
ENDBRANCH  24  26
ENDBRANCH   3  24
TORSDOF 6
ENDMDL
MODEL      303
REMARK  Name = ZINC01671007
REMARK  10 active torsions:
REMARK  status: ('A' for Active; 'I' for Inactive)
REMARK    1  A    between atoms: C_1  and  C_2
REMARK    2  A    between atoms: C_2  and  C_23
REMARK    3  A    between atoms: N_7  and  C_8
REMARK    4  A    between atoms: C_11  and  N_14
REMARK    5  A    between atoms: N_14  and  C_15
REMARK    6  A    between atoms: N_14  and  C_18
REMARK    7  A    between atoms: C_15  and  C_16
REMARK    8  A    between atoms: C_16  and  O_17
REMARK    9  A    between atoms: C_18  and  C_19
REMARK   10  A    between atoms: C_19  and  O_20
REMARK                            x       y       z     vdW  Elec       q    Type
REMARK                         _______ _______ _______ _____ _____    ______ ____
ROOT
ATOM      1  C   UNL     1      -3.110   2.063  -2.207  0.00  0.00    +0.000 C 
ATOM      2  C   UNL     1      -2.969   2.196  -0.690  0.00  0.00    +0.000 C 
ATOM      3  N   UNL     1      -2.107   3.340  -0.371  0.00  0.00    +0.000 NA
ATOM      4  C   UNL     1      -1.330   3.308   0.679  0.00  0.00    +0.000 C 
ATOM      5  N   UNL     1      -1.258   2.231   1.478  0.00  0.00    +0.000 N 
ATOM      6  C   UNL     1      -1.760   1.070   1.099  0.00  0.00    +0.000 C 
ATOM      7  N   UNL     1      -2.347   0.981  -0.141  0.00  0.00    +0.000 N 
ATOM      8  N   UNL     1      -1.702  -0.019   1.925  0.00  0.00    +0.000 N 
ATOM      9  N   UNL     1      -0.566   4.418   0.979  0.00  0.00    +0.000 N 
ATOM     10  C   UNL     1      -4.349   2.397  -0.060  0.00  0.00    +0.000 C 
ATOM     11  H   UNL     1      -0.804   2.311   2.400  0.00  0.00    +0.000 HD
ATOM     12  H   UNL     1      -1.262   0.070   2.852  0.00  0.00    +0.000 HD
ATOM     13  H   UNL     1      -2.096  -0.922   1.623  0.00  0.00    +0.000 HD
ATOM     14  H   UNL     1      -0.605   5.259   0.387  0.00  0.00    +0.000 HD
ATOM     15  H   UNL     1       0.050   4.402   1.805  0.00  0.00    +0.000 HD
ENDROOT
BRANCH   7  16
ATOM     16  C   UNL     1      -2.352  -0.224  -0.857  0.00  0.00    +0.000 A 
ATOM     17  C   UNL     1      -3.543  -0.909  -1.054  0.00  0.00    +0.000 A 
ATOM     18  C   UNL     1      -3.549  -2.094  -1.763  0.00  0.00    +0.000 A 
ATOM     19  C   UNL     1      -2.362  -2.605  -2.271  0.00  0.00    +0.000 A 
ATOM     20  C   UNL     1      -1.169  -1.922  -2.069  0.00  0.00    +0.000 A 
ATOM     21  C   UNL     1      -1.165  -0.735  -1.364  0.00  0.00    +0.000 A 
BRANCH  19  22
ATOM     22  N   UNL     1      -2.367  -3.808  -2.985  0.00  0.00    +0.000 N 
BRANCH  22  23
ATOM     23  C   UNL     1      -3.625  -4.529  -3.197  0.00  0.00    +0.000 C 
BRANCH  23  24
ATOM     24  C   UNL     1      -4.272  -4.050  -4.498  0.00  0.00    +0.000 C 
BRANCH  24  25
ATOM     25  O   UNL     1      -3.441  -4.408  -5.604  0.00  0.00    +0.000 OA
ATOM     26  H   UNL     1      -3.332  -5.391  -5.632  0.00  0.00    +0.000 HD
ENDBRANCH  24  25
ENDBRANCH  23  24
ENDBRANCH  22  23
BRANCH  22  27
ATOM     27  C   UNL     1      -1.114  -4.348  -3.519  0.00  0.00    +0.000 C 
BRANCH  27  28
ATOM     28  C   UNL     1      -0.469  -5.265  -2.478  0.00  0.00    +0.000 C 
BRANCH  28  29
ATOM     29  O   UNL     1      -1.307  -6.401  -2.259  0.00  0.00    +0.000 OA
ATOM     30  H   UNL     1      -1.421  -6.897  -3.108  0.00  0.00    +0.000 HD
ENDBRANCH  28  29
ENDBRANCH  27  28
ENDBRANCH  22  27
ENDBRANCH  19  22
ENDBRANCH   7  16
TORSDOF 8
ENDMDL
MODEL      304
REMARK  Name = ZINC06797169
REMARK  8 active torsions:
REMARK  status: ('A' for Active; 'I' for Inactive)
REMARK    1  A    between atoms: C_1  and  C_2
REMARK    2  A    between atoms: C_5  and  C_23
REMARK    3  A    between atoms: C_6  and  N_8
REMARK    4  A    between atoms: C_9  and  C_11
REMARK    5  A    between atoms: C_11  and  C_12
REMARK    6  A    between atoms: N_18  and  N_19
REMARK    7  A    between atoms: N_19  and  C_20
REMARK    8  A    between atoms: C_20  and  C_22
REMARK                            x       y       z     vdW  Elec       q    Type
REMARK                         _______ _______ _______ _____ _____    ______ ____
ROOT
ATOM      1  C   UNL     1      -6.269   2.659   1.156  0.00  0.00    +0.000 C 
ENDROOT
BRANCH   1   2
ATOM      2  C   UNL     1      -6.804   2.426  -0.259  0.00  0.00    +0.000 A 
ATOM      3  C   UNL     1      -8.266   2.840  -0.376  0.00  0.00    +0.000 A 
ATOM      4  O   UNL     1      -9.156   2.312   0.262  0.00  0.00    +0.000 OA
ATOM      5  N   UNL     1      -8.478   3.813  -1.222  0.00  0.00    +0.000 NA
ATOM      6  C   UNL     1      -7.529   4.406  -1.928  0.00  0.00    +0.000 A 
ATOM      7  S   UNL     1      -6.062   3.603  -1.458  0.00  0.00    +0.000 S 
ATOM      8  N   UNL     1      -7.670   5.422  -2.826  0.00  0.00    +0.000 N 
ATOM      9  H   UNL     1      -6.844   5.798  -3.314  0.00  0.00    +0.000 HD
BRANCH   8  10
ATOM     10  N   UNL     1      -8.940   5.956  -3.086  0.00  0.00    +0.000 N 
ATOM     11  H   UNL     1      -9.766   5.581  -2.598  0.00  0.00    +0.000 HD
BRANCH  10  12
ATOM     12  C   UNL     1      -9.084   6.991  -4.001  0.00  0.00    +0.000 C 
ATOM     13  C   UNL     1      -8.026   7.472  -4.626  0.00  0.00    +0.000 C 
ATOM     14  C   UNL     1     -10.449   7.565  -4.280  0.00  0.00    +0.000 C 
ENDBRANCH  10  12
ENDBRANCH   8  10
ENDBRANCH   1   2
BRANCH   1  16
ATOM     15  N   UNL     1      -4.114   2.447   2.352  0.00  0.00    +0.000 N 
ATOM     16  C   UNL     1      -4.802   2.318   1.200  0.00  0.00    +0.000 C 
ATOM     17  O   UNL     1      -4.239   1.927   0.199  0.00  0.00    +0.000 OA
ATOM     18  H   UNL     1      -4.608   2.697   3.221  0.00  0.00    +0.000 HD
BRANCH  15  24
ATOM     19  C   UNL     1       0.183   2.393  -0.036  0.00  0.00    +0.000 C 
ATOM     20  C   UNL     1      -0.623   2.209   1.225  0.00  0.00    +0.000 A 
ATOM     21  C   UNL     1       0.007   1.837   2.399  0.00  0.00    +0.000 A 
ATOM     22  C   UNL     1      -0.729   1.667   3.557  0.00  0.00    +0.000 A 
ATOM     23  C   UNL     1      -2.095   1.869   3.545  0.00  0.00    +0.000 A 
ATOM     24  C   UNL     1      -2.730   2.242   2.368  0.00  0.00    +0.000 A 
ATOM     25  C   UNL     1      -1.988   2.417   1.207  0.00  0.00    +0.000 A 
ATOM     26  C   UNL     1      -2.897   1.682   4.808  0.00  0.00    +0.000 C 
ENDBRANCH  15  24
ENDBRANCH   1  16
TORSDOF 5
ENDMDL
MODEL      305
REMARK  Name = ZINC20027342
REMARK  7 active torsions:
REMARK  status: ('A' for Active; 'I' for Inactive)
REMARK    1  A    between atoms: C_3  and  C_16
REMARK    2  A    between atoms: C_5  and  S_7
REMARK    3  A    between atoms: S_7  and  N_10
REMARK    4  A    between atoms: N_18  and  C_19
REMARK    5  A    between atoms: C_19  and  C_20
REMARK    6  A    between atoms: C_20  and  C_21
REMARK    7  A    between atoms: C_21  and  N_22
REMARK                            x       y       z     vdW  Elec       q    Type
REMARK                         _______ _______ _______ _____ _____    ______ ____
ROOT
ATOM      1  C   UNL     1       1.260  -1.142   3.648  0.00  0.00    +0.000 A 
ATOM      2  C   UNL     1       0.081  -1.369   4.327  0.00  0.00    +0.000 A 
ATOM      3  C   UNL     1      -1.141  -1.177   3.681  0.00  0.00    +0.000 A 
ATOM      4  C   UNL     1      -1.161  -0.757   2.350  0.00  0.00    +0.000 A 
ATOM      5  C   UNL     1       0.025  -0.534   1.682  0.00  0.00    +0.000 A 
ATOM      6  C   UNL     1       1.233  -0.731   2.328  0.00  0.00    +0.000 A 
ENDROOT
BRANCH   3   7
ATOM      7  C   UNL     1      -2.409  -1.419   4.402  0.00  0.00    +0.000 C 
ATOM      8  O   UNL     1      -3.471  -1.252   3.837  0.00  0.00    +0.000 OA
ATOM      9  N   UNL     1      -2.386  -1.825   5.688  0.00  0.00    +0.000 N 
ATOM     10  H   UNL     1      -1.485  -1.966   6.167  0.00  0.00    +0.000 HD
BRANCH   9  11
ATOM     11  C   UNL     1      -3.642  -2.064   6.402  0.00  0.00    +0.000 C 
BRANCH  11  12
ATOM     12  C   UNL     1      -3.337  -2.513   7.833  0.00  0.00    +0.000 C 
BRANCH  12  13
ATOM     13  C   UNL     1      -4.649  -2.763   8.580  0.00  0.00    +0.000 C 
BRANCH  13  14
ATOM     14  N   UNL     1      -4.356  -3.194   9.953  0.00  0.00    +0.000 N 
ATOM     15  H   UNL     1      -3.820  -2.459  10.438  0.00  0.00    +0.000 HD
ATOM     16  H   UNL     1      -3.803  -4.063   9.931  0.00  0.00    +0.000 HD
ATOM     17  H   UNL     1      -5.238  -3.362  10.457  0.00  0.00    +0.000 HD
ENDBRANCH  13  14
ENDBRANCH  12  13
ENDBRANCH  11  12
ENDBRANCH   9  11
ENDBRANCH   3   7
BRANCH   5  18
ATOM     18  S   UNL     1       0.002  -0.004   0.002  0.00  0.00    +0.000 S 
ATOM     19  O   UNL     1      -1.243  -0.424  -0.539  0.00  0.00    +0.000 OA
ATOM     20  O   UNL     1       1.248  -0.390  -0.563  0.00  0.00    +0.000 OA
BRANCH  18  21
ATOM     21  N   UNL     1      -0.020   1.652   0.011  0.00  0.00    +0.000 NA
ATOM     22  C   UNL     1      -1.292   2.392   0.021  0.00  0.00    +0.000 C 
ATOM     23  C   UNL     1      -1.234   3.429   1.155  0.00  0.00    +0.000 C 
ATOM     24  O   UNL     1      -0.046   4.211   1.014  0.00  0.00    +0.000 OA
ATOM     25  C   UNL     1       1.166   3.461   1.132  0.00  0.00    +0.000 C 
ATOM     26  C   UNL     1       1.231   2.426   0.003  0.00  0.00    +0.000 C 
ENDBRANCH  18  21
ENDBRANCH   5  18
TORSDOF 7
ENDMDL
MODEL      306
REMARK  Name = ZINC00186268
REMARK  10 active torsions:
REMARK  status: ('A' for Active; 'I' for Inactive)
REMARK    1  A    between atoms: C_1  and  C_2
REMARK    2  A    between atoms: C_10  and  O_21
REMARK    3  A    between atoms: C_12  and  C_13
REMARK    4  A    between atoms: C_13  and  N_22
REMARK    5  A    between atoms: C_14  and  C_15
REMARK    6  A    between atoms: C_14  and  N_22
REMARK    7  A    between atoms: C_15  and  O_16
REMARK    8  A    between atoms: C_17  and  C_18
REMARK    9  A    between atoms: C_17  and  N_22
REMARK   10  A    between atoms: C_18  and  O_19
REMARK                            x       y       z     vdW  Elec       q    Type
REMARK                         _______ _______ _______ _____ _____    ______ ____
ROOT
ATOM      1  C   UNL     1       6.854   1.234   0.374  0.00  0.00    +0.000 C 
ATOM      2  C   UNL     1       5.615   0.378   0.325  0.00  0.00    +0.000 A 
ATOM      3  C   UNL     1       5.567  -0.819   0.966  0.00  0.00    +0.000 A 
ATOM      4  C   UNL     1       4.397  -1.602   0.904  0.00  0.00    +0.000 A 
ATOM      5  O   UNL     1       4.367  -2.673   1.483  0.00  0.00    +0.000 OA
ATOM      6  O   UNL     1       3.313  -1.197   0.223  0.00  0.00    +0.000 OA
ATOM      7  C   UNL     1       3.294  -0.018  -0.436  0.00  0.00    +0.000 A 
ATOM      8  C   UNL     1       4.429   0.813  -0.416  0.00  0.00    +0.000 A 
ATOM      9  C   UNL     1       4.415   2.036  -1.097  0.00  0.00    +0.000 A 
ATOM     10  C   UNL     1       3.285   2.420  -1.786  0.00  0.00    +0.000 A 
ATOM     11  C   UNL     1       2.160   1.591  -1.809  0.00  0.00    +0.000 A 
ATOM     12  C   UNL     1       2.164   0.383  -1.134  0.00  0.00    +0.000 A 
ATOM     13  O   UNL     1       1.053   1.975  -2.495  0.00  0.00    +0.000 OA
ENDROOT
BRANCH  10  14
ATOM     14  O   UNL     1       3.266   3.607  -2.450  0.00  0.00    +0.000 OA
ATOM     15  H   UNL     1       4.035   3.565  -3.072  0.00  0.00    +0.000 HD
ENDBRANCH  10  14
BRANCH  12  16
ATOM     16  C   UNL     1       0.943  -0.500  -1.163  0.00  0.00    +0.000 C 
BRANCH  16  17
ATOM     17  N   UNL     1      -0.018  -0.015  -0.150  0.00  0.00    +0.000 N 
ATOM     18  H   UNL     1      -0.139   1.001  -0.264  0.00  0.00    +0.000 HD
BRANCH  17  19
ATOM     19  C   UNL     1      -1.326  -0.678  -0.338  0.00  0.00    +0.000 C 
BRANCH  19  20
ATOM     20  C   UNL     1      -2.014  -0.070  -1.562  0.00  0.00    +0.000 C 
BRANCH  20  21
ATOM     21  O   UNL     1      -1.290  -0.428  -2.741  0.00  0.00    +0.000 OA
ATOM     22  H   UNL     1      -1.270  -1.414  -2.831  0.00  0.00    +0.000 HD
ENDBRANCH  20  21
ENDBRANCH  19  20
ENDBRANCH  17  19
BRANCH  17  23
ATOM     23  C   UNL     1       0.496  -0.289   1.208  0.00  0.00    +0.000 C 
BRANCH  23  24
ATOM     24  C   UNL     1      -0.159   0.689   2.185  0.00  0.00    +0.000 C 
BRANCH  24  25
ATOM     25  O   UNL     1      -1.543   0.363   2.328  0.00  0.00    +0.000 OA
ATOM     26  H   UNL     1      -1.632  -0.559   2.676  0.00  0.00    +0.000 HD
ENDBRANCH  24  25
ENDBRANCH  23  24
ENDBRANCH  17  23
ENDBRANCH  16  17
ENDBRANCH  12  16
TORSDOF 9
ENDMDL
MODEL      307
REMARK  Name = ZINC02904989
REMARK  9 active torsions:
REMARK  status: ('A' for Active; 'I' for Inactive)
REMARK    1  A    between atoms: C_1  and  N_24
REMARK    2  A    between atoms: C_4  and  N_7
REMARK    3  A    between atoms: N_7  and  N_8
REMARK    4  A    between atoms: C_9  and  C_11
REMARK    5  A    between atoms: N_13  and  C_14
REMARK    6  A    between atoms: C_17  and  O_22
REMARK    7  A    between atoms: C_19  and  O_20
REMARK    8  A    between atoms: O_20  and  C_21
REMARK    9  A    between atoms: O_22  and  C_23
REMARK                            x       y       z     vdW  Elec       q    Type
REMARK                         _______ _______ _______ _____ _____    ______ ____
ROOT
ATOM      1  N   UNL     1       2.385   1.158  -0.012  0.00  0.00    +0.000 N 
ATOM      2  C   UNL     1       1.235   1.860   0.009  0.00  0.00    +0.000 C 
ATOM      3  O   UNL     1       1.264   3.073   0.033  0.00  0.00    +0.000 OA
ATOM      4  H   UNL     1       2.361   0.129  -0.032  0.00  0.00    +0.000 HD
ENDROOT
BRANCH   2   5
ATOM      5  C   UNL     1      -0.076   1.144   0.003  0.00  0.00    +0.000 C 
ATOM      6  O   UNL     1      -0.105  -0.069  -0.021  0.00  0.00    +0.000 OA
ATOM      7  N   UNL     1      -1.226   1.846   0.018  0.00  0.00    +0.000 N 
ATOM      8  H   UNL     1      -1.203   2.873   0.101  0.00  0.00    +0.000 HD
BRANCH   7   9
ATOM      9  C   UNL     1      -2.454   1.180  -0.077  0.00  0.00    +0.000 A 
ATOM     10  C   UNL     1      -2.562  -0.141   0.334  0.00  0.00    +0.000 A 
ATOM     11  C   UNL     1      -3.773  -0.798   0.240  0.00  0.00    +0.000 A 
ATOM     12  C   UNL     1      -4.885  -0.140  -0.265  0.00  0.00    +0.000 A 
ATOM     13  C   UNL     1      -4.783   1.181  -0.677  0.00  0.00    +0.000 A 
ATOM     14  C   UNL     1      -3.571   1.844  -0.580  0.00  0.00    +0.000 A 
BRANCH  14  15
ATOM     15  O   UNL     1      -3.471   3.140  -0.979  0.00  0.00    +0.000 OA
ATOM     16  C   UNL     1      -4.657   3.757  -1.484  0.00  0.00    +0.000 C 
ENDBRANCH  14  15
BRANCH  12  17
ATOM     17  O   UNL     1      -6.076  -0.789  -0.355  0.00  0.00    +0.000 OA
ATOM     18  C   UNL     1      -6.109  -2.147   0.088  0.00  0.00    +0.000 C 
ENDBRANCH  12  17
ENDBRANCH   7   9
ENDBRANCH   2   5
BRANCH   1  19
ATOM     19  N   UNL     1       3.615   1.829  -0.006  0.00  0.00    +0.000 N 
ATOM     20  H   UNL     1       3.642   2.854   0.094  0.00  0.00    +0.000 HD
BRANCH  19  24
ATOM     21  C   UNL     1       8.347  -1.050  -0.792  0.00  0.00    +0.000 C 
ATOM     22  C   UNL     1       7.237   0.847   0.231  0.00  0.00    +0.000 C 
ATOM     23  C   UNL     1       6.103   1.848  -0.012  0.00  0.00    +0.000 C 
ATOM     24  C   UNL     1       4.798   1.112  -0.135  0.00  0.00    +0.000 C 
ATOM     25  C   UNL     1       4.730  -0.174  -0.365  0.00  0.00    +0.000 C 
ATOM     26  C   UNL     1       5.942  -1.047  -0.514  0.00  0.00    +0.000 C 
ATOM     27  N   UNL     1       7.126  -0.213  -0.792  0.00  0.00    +0.000 N 
ATOM     28  H   UNL     1       7.023   0.223  -1.720  0.00  0.00    +0.000 HD
ENDBRANCH  19  24
ENDBRANCH   1  19
TORSDOF 6
ENDMDL
MODEL      308
REMARK  Name = ZINC16952801
REMARK  9 active torsions:
REMARK  status: ('A' for Active; 'I' for Inactive)
REMARK    1  A    between atoms: C_1  and  C_2
REMARK    2  A    between atoms: C_2  and  O_3
REMARK    3  A    between atoms: O_3  and  C_4
REMARK    4  A    between atoms: C_4  and  C_6
REMARK    5  A    between atoms: C_6  and  C_9
REMARK    6  A    between atoms: C_9  and  C_10
REMARK    7  A    between atoms: C_9  and  O_23
REMARK    8  A    between atoms: C_11  and  O_22
REMARK    9  A    between atoms: C_14  and  C_16
REMARK                            x       y       z     vdW  Elec       q    Type
REMARK                         _______ _______ _______ _____ _____    ______ ____
ROOT
ATOM      1  C   UNL     1      -0.893   3.119  -1.135  0.00  0.00    +0.000 C 
ATOM      2  C   UNL     1      -0.758   1.596  -1.230  0.00  0.00    +0.000 C 
ATOM      3  C   UNL     1      -0.013   1.086   0.008  0.00  0.00    +0.000 C 
ATOM      4  O   UNL     1      -0.686   1.549   1.182  0.00  0.00    +0.000 OA
ATOM      5  C   UNL     1      -0.804   2.972   1.255  0.00  0.00    +0.000 C 
ATOM      6  O   UNL     1      -1.513   3.454   0.111  0.00  0.00    +0.000 OA
ENDROOT
BRANCH   5   7
ATOM      7  C   UNL     1      -1.553   3.351   2.507  0.00  0.00    +0.000 A 
ATOM      8  C   UNL     1      -2.735   4.063   2.416  0.00  0.00    +0.000 A 
ATOM      9  C   UNL     1      -3.425   4.407   3.563  0.00  0.00    +0.000 A 
ATOM     10  C   UNL     1      -2.928   4.046   4.802  0.00  0.00    +0.000 A 
ATOM     11  C   UNL     1      -1.744   3.339   4.893  0.00  0.00    +0.000 A 
ATOM     12  C   UNL     1      -1.057   2.991   3.745  0.00  0.00    +0.000 A 
ENDBRANCH   5   7
BRANCH   2  13
ATOM     13  O   UNL     1      -0.025   1.250  -2.407  0.00  0.00    +0.000 OA
ATOM     14  H   UNL     1       0.876   1.659  -2.365  0.00  0.00    +0.000 HD
ENDBRANCH   2  13
BRANCH   1  15
ATOM     15  C   UNL     1      -1.756   3.631  -2.290  0.00  0.00    +0.000 C 
BRANCH  15  16
ATOM     16  C   UNL     1      -1.988   5.111  -2.126  0.00  0.00    +0.000 C 
ATOM     17  N   UNL     1      -1.497   5.716  -1.149  0.00  0.00    +0.000 NA
ATOM     18  N   UNL     1      -1.055   6.261  -0.271  0.00  0.00    +0.000 NA
ATOM     19  H   UNL     1      -0.200   5.904   0.179  0.00  0.00    +0.000 HD
BRANCH  16  20
ATOM     20  C   UNL     1      -2.756   5.807  -3.068  0.00  0.00    +0.000 C 
ATOM     21  O   UNL     1      -3.235   5.217  -4.019  0.00  0.00    +0.000 OA
BRANCH  20  22
ATOM     22  O   UNL     1      -2.965   7.135  -2.921  0.00  0.00    +0.000 OA
BRANCH  22  24
ATOM     23  C   UNL     1      -3.883   9.270  -3.585  0.00  0.00    +0.000 C 
ATOM     24  C   UNL     1      -3.757   7.782  -3.919  0.00  0.00    +0.000 C 
ENDBRANCH  22  24
ENDBRANCH  20  22
ENDBRANCH  16  20
ENDBRANCH  15  16
BRANCH  15  25
ATOM     25  O   UNL     1      -3.011   2.948  -2.286  0.00  0.00    +0.000 OA
ATOM     26  H   UNL     1      -3.570   3.278  -3.033  0.00  0.00    +0.000 HD
ENDBRANCH  15  25
ENDBRANCH   1  15
TORSDOF 8
ENDMDL
MODEL      309
REMARK  Name = ZINC05838514
REMARK  10 active torsions:
REMARK  status: ('A' for Active; 'I' for Inactive)
REMARK    1  A    between atoms: C_1  and  C_2
REMARK    2  A    between atoms: C_2  and  C_3
REMARK    3  A    between atoms: C_3  and  C_4
REMARK    4  A    between atoms: C_4  and  N_23
REMARK    5  A    between atoms: C_5  and  N_23
REMARK    6  A    between atoms: C_6  and  O_22
REMARK    7  A    between atoms: C_7  and  C_20
REMARK    8  A    between atoms: C_9  and  N_10
REMARK    9  A    between atoms: C_18  and  N_19
REMARK   10  A    between atoms: C_20  and  O_21
REMARK                            x       y       z     vdW  Elec       q    Type
REMARK                         _______ _______ _______ _____ _____    ______ ____
ROOT
ATOM      1  C   UNL     1       4.106   0.681   1.410  0.00  0.00    +0.000 C 
ATOM      2  C   UNL     1       5.317  -0.278   1.410  0.00  0.00    +0.000 C 
ATOM      3  C   UNL     1       5.350  -0.841  -0.029  0.00  0.00    +0.000 C 
ATOM      4  O   UNL     1       3.995  -0.703  -0.510  0.00  0.00    +0.000 OA
ATOM      5  C   UNL     1       3.550   0.584  -0.028  0.00  0.00    +0.000 C 
ENDROOT
BRANCH   5   6
ATOM      6  N   UNL     1       2.086   0.644  -0.014  0.00  0.00    +0.000 N 
ATOM      7  C   UNL     1       1.235  -0.420  -0.012  0.00  0.00    +0.000 A 
ATOM      8  N   UNL     1       0.002  -0.004   0.002  0.00  0.00    +0.000 NA
ATOM      9  C   UNL     1      -0.016   1.351   0.009  0.00  0.00    +0.000 A 
ATOM     10  C   UNL     1       1.321   1.783  -0.001  0.00  0.00    +0.000 A 
ATOM     11  N   UNL     1       1.578   3.087   0.004  0.00  0.00    +0.000 NA
ATOM     12  C   UNL     1       0.597   3.964   0.018  0.00  0.00    +0.000 A 
ATOM     13  N   UNL     1      -0.674   3.606   0.029  0.00  0.00    +0.000 NA
ATOM     14  C   UNL     1      -1.028   2.325   0.029  0.00  0.00    +0.000 A 
BRANCH  14  15
ATOM     15  N   UNL     1      -2.363   1.960   0.047  0.00  0.00    +0.000 N 
ATOM     16  H   UNL     1      -2.614   0.961   0.045  0.00  0.00    +0.000 HD
ATOM     17  H   UNL     1      -3.100   2.679   0.062  0.00  0.00    +0.000 HD
ENDBRANCH  14  15
ENDBRANCH   5   6
BRANCH   1  18
ATOM     18  N   UNL     1       4.539   2.062   1.696  0.00  0.00    +0.000 N 
ATOM     19  H   UNL     1       5.500   2.195   1.350  0.00  0.00    +0.000 HD
ATOM     20  H   UNL     1       3.913   2.722   1.215  0.00  0.00    +0.000 HD
BRANCH  18  21
ATOM     21  C   UNL     1       4.501   2.320   3.148  0.00  0.00    +0.000 C 
BRANCH  21  22
ATOM     22  C   UNL     1       4.955   3.756   3.414  0.00  0.00    +0.000 C 
BRANCH  22  24
ATOM     23  C   UNL     1       5.372   5.469   5.184  0.00  0.00    +0.000 C 
ATOM     24  C   UNL     1       4.918   4.033   4.918  0.00  0.00    +0.000 C 
ENDBRANCH  22  24
ENDBRANCH  21  22
ENDBRANCH  18  21
ENDBRANCH   1  18
BRANCH   2  25
ATOM     25  O   UNL     1       5.124  -1.329   2.358  0.00  0.00    +0.000 OA
ATOM     26  H   UNL     1       4.304  -1.832   2.120  0.00  0.00    +0.000 HD
ENDBRANCH   2  25
BRANCH   3  27
ATOM     27  C   UNL     1       5.763  -2.314  -0.015  0.00  0.00    +0.000 C 
BRANCH  27  28
ATOM     28  O   UNL     1       5.900  -2.783  -1.357  0.00  0.00    +0.000 OA
ATOM     29  H   UNL     1       6.592  -2.252  -1.824  0.00  0.00    +0.000 HD
ENDBRANCH  27  28
ENDBRANCH   3  27
TORSDOF 9
ENDMDL
MODEL      310
REMARK  Name = ZINC05202206
REMARK  12 active torsions:
REMARK  status: ('A' for Active; 'I' for Inactive)
REMARK    1  A    between atoms: C_1  and  C_2
REMARK    2  A    between atoms: C_3  and  N_11
REMARK    3  A    between atoms: C_4  and  C_10
REMARK    4  A    between atoms: N_5  and  C_7
REMARK    5  A    between atoms: C_7  and  C_8
REMARK    6  A    between atoms: C_8  and  O_9
REMARK    7  A    between atoms: N_12  and  C_13
REMARK    8  A    between atoms: C_14  and  C_22
REMARK    9  A    between atoms: N_16  and  C_19
REMARK   10  A    between atoms: C_17  and  C_18
REMARK   11  A    between atoms: C_19  and  C_20
REMARK   12  A    between atoms: C_20  and  O_21
REMARK                            x       y       z     vdW  Elec       q    Type
REMARK                         _______ _______ _______ _____ _____    ______ ____
ROOT
ATOM      1  N   UNL     1       2.346   1.204   4.993  0.00  0.00    +0.000 NA
ATOM      2  N   UNL     1       2.595   0.418   5.986  0.00  0.00    +0.000 N 
ATOM      3  O   UNL     1       1.902  -0.811   6.107  0.00  0.00    +0.000 OA
ENDROOT
BRANCH   1   6
ATOM      4  C   UNL     1       2.615  -1.502   3.483  0.00  0.00    +0.000 C 
ATOM      5  C   UNL     1       1.587  -0.420   3.275  0.00  0.00    +0.000 A 
ATOM      6  C   UNL     1       1.507   0.795   3.989  0.00  0.00    +0.000 A 
ATOM      7  C   UNL     1       0.430   1.494   3.489  0.00  0.00    +0.000 A 
ATOM      8  N   UNL     1      -0.122   0.741   2.516  0.00  0.00    +0.000 N 
ATOM      9  N   UNL     1       0.612  -0.445   2.407  0.00  0.00    +0.000 NA
ATOM     10  C   UNL     1      -0.044   2.849   3.947  0.00  0.00    +0.000 C 
BRANCH   8  11
ATOM     11  C   UNL     1      -1.295   1.101   1.715  0.00  0.00    +0.000 C 
BRANCH  11  12
ATOM     12  C   UNL     1      -0.844   1.855   0.462  0.00  0.00    +0.000 C 
BRANCH  12  13
ATOM     13  O   UNL     1      -1.988   2.206  -0.319  0.00  0.00    +0.000 OA
ATOM     14  H   UNL     1      -2.589   2.784   0.214  0.00  0.00    +0.000 HD
ENDBRANCH  12  13
ENDBRANCH  11  12
ENDBRANCH   8  11
ENDBRANCH   1   6
BRANCH   2  15
ATOM     15  C   UNL     1       3.530   0.773   6.922  0.00  0.00    +0.000 A 
ATOM     16  C   UNL     1       4.300   1.956   6.930  0.00  0.00    +0.000 A 
ATOM     17  N   UNL     1       5.072   1.930   7.983  0.00  0.00    +0.000 NA
ATOM     18  N   UNL     1       4.842   0.741   8.683  0.00  0.00    +0.000 N 
ATOM     19  C   UNL     1       3.898   0.038   8.029  0.00  0.00    +0.000 A 
ATOM     20  C   UNL     1       3.345  -1.305   8.433  0.00  0.00    +0.000 C 
ATOM     21  C   UNL     1       4.238   3.059   5.905  0.00  0.00    +0.000 C 
BRANCH  18  22
ATOM     22  C   UNL     1       5.514   0.330   9.919  0.00  0.00    +0.000 C 
BRANCH  22  23
ATOM     23  C   UNL     1       6.773  -0.468   9.573  0.00  0.00    +0.000 C 
BRANCH  23  24
ATOM     24  O   UNL     1       7.428  -0.869  10.778  0.00  0.00    +0.000 OA
ATOM     25  H   UNL     1       6.817  -1.433  11.315  0.00  0.00    +0.000 HD
ENDBRANCH  23  24
ENDBRANCH  22  23
ENDBRANCH  18  22
ENDBRANCH   2  15
TORSDOF 8
ENDMDL
MODEL      311
REMARK  Name = ZINC03215161
REMARK  10 active torsions:
REMARK  status: ('A' for Active; 'I' for Inactive)
REMARK    1  A    between atoms: C_1  and  O_2
REMARK    2  A    between atoms: O_2  and  C_3
REMARK    3  A    between atoms: C_5  and  C_13
REMARK    4  A    between atoms: C_7  and  O_11
REMARK    5  A    between atoms: C_8  and  O_9
REMARK    6  A    between atoms: O_9  and  C_10
REMARK    7  A    between atoms: O_11  and  C_12
REMARK    8  A    between atoms: N_17  and  C_21
REMARK    9  A    between atoms: C_21  and  C_22
REMARK   10  A    between atoms: C_22  and  N_23
REMARK                            x       y       z     vdW  Elec       q    Type
REMARK                         _______ _______ _______ _____ _____    ______ ____
ROOT
ATOM      1  C   UNL     1       2.746  -0.808   3.697  0.00  0.00    +0.000 C 
ATOM      2  C   UNL     1       3.614  -0.803   2.653  0.00  0.00    +0.000 C 
ATOM      3  C   UNL     1       3.605   0.019   1.427  0.00  0.00    +0.000 C 
ATOM      4  O   UNL     1       2.739   0.848   1.219  0.00  0.00    +0.000 OA
ATOM      5  N   UNL     1       4.588  -0.190   0.566  0.00  0.00    +0.000 N 
ATOM      6  C   UNL     1       5.546  -1.109   0.801  0.00  0.00    +0.000 C 
ATOM      7  O   UNL     1       6.499  -1.401   0.104  0.00  0.00    +0.000 OA
ATOM      8  S   UNL     1       5.084  -1.785   2.388  0.00  0.00    +0.000 S 
ENDROOT
BRANCH   1  11
ATOM      9  C   UNL     1      -0.388   0.757   2.355  0.00  0.00    +0.000 A 
ATOM     10  C   UNL     1       0.781   0.023   2.423  0.00  0.00    +0.000 A 
ATOM     11  C   UNL     1       1.502  -0.033   3.622  0.00  0.00    +0.000 A 
ATOM     12  C   UNL     1       1.030   0.648   4.750  0.00  0.00    +0.000 A 
ATOM     13  C   UNL     1      -0.142   1.377   4.675  0.00  0.00    +0.000 A 
ATOM     14  C   UNL     1      -0.854   1.433   3.480  0.00  0.00    +0.000 A 
BRANCH  13  15
ATOM     15  O   UNL     1      -0.601   2.039   5.771  0.00  0.00    +0.000 OA
ATOM     16  C   UNL     1       0.179   1.938   6.964  0.00  0.00    +0.000 C 
ENDBRANCH  13  15
BRANCH  14  17
ATOM     17  O   UNL     1      -2.006   2.151   3.410  0.00  0.00    +0.000 OA
ATOM     18  C   UNL     1      -3.219   1.462   3.722  0.00  0.00    +0.000 C 
ENDBRANCH  14  17
BRANCH   9  20
ATOM     19  C   UNL     1      -0.551   0.099   0.075  0.00  0.00    +0.000 C 
ATOM     20  O   UNL     1      -1.086   0.816   1.189  0.00  0.00    +0.000 OA
ENDBRANCH   9  20
ENDBRANCH   1  11
BRANCH   5  21
ATOM     21  C   UNL     1       4.636   0.596  -0.670  0.00  0.00    +0.000 C 
BRANCH  21  22
ATOM     22  C   UNL     1       5.449   1.870  -0.433  0.00  0.00    +0.000 C 
BRANCH  22  23
ATOM     23  N   UNL     1       5.509   2.640  -1.688  0.00  0.00    +0.000 N 
ATOM     24  H   UNL     1       4.557   2.893  -1.986  0.00  0.00    +0.000 HD
ATOM     25  H   UNL     1       5.962   2.076  -2.421  0.00  0.00    +0.000 HD
ATOM     26  H   UNL     1       6.056   3.499  -1.533  0.00  0.00    +0.000 HD
ENDBRANCH  22  23
ENDBRANCH  21  22
ENDBRANCH   5  21
TORSDOF 7
ENDMDL
MODEL      312
REMARK  Name = ZINC03221081
REMARK  7 active torsions:
REMARK  status: ('A' for Active; 'I' for Inactive)
REMARK    1  A    between atoms: C_1  and  C_2
REMARK    2  A    between atoms: C_2  and  O_3
REMARK    3  A    between atoms: O_3  and  C_4
REMARK    4  A    between atoms: C_9  and  N_12
REMARK    5  A    between atoms: N_12  and  N_13
REMARK    6  A    between atoms: N_13  and  C_14
REMARK    7  A    between atoms: C_17  and  C_20
REMARK                            x       y       z     vdW  Elec       q    Type
REMARK                         _______ _______ _______ _____ _____    ______ ____
ROOT
ATOM      1  N   UNL     1      -2.226   2.846   2.438  0.00  0.00    +0.000 NA
ATOM      2  H   UNL     1      -2.044   3.851   2.569  0.00  0.00    +0.000 HD
ATOM      3  H   UNL     1      -3.249   2.768   2.350  0.00  0.00    +0.000 HD
ENDROOT
BRANCH   1   9
ATOM      4  C   UNL     1      -0.958   0.764  -2.239  0.00  0.00    +0.000 C 
ATOM      5  O   UNL     1      -1.554   1.188  -3.209  0.00  0.00    +0.000 OA
ATOM      6  N   UNL     1      -0.732   1.568  -1.181  0.00  0.00    +0.000 N 
ATOM      7  C   UNL     1      -1.195   2.967  -1.169  0.00  0.00    +0.000 C 
ATOM      8  C   UNL     1      -2.194   3.122  -0.020  0.00  0.00    +0.000 C 
ATOM      9  C   UNL     1      -1.667   2.470   1.223  0.00  0.00    +0.000 C 
ATOM     10  C   UNL     1      -0.718   1.573   1.243  0.00  0.00    +0.000 C 
ATOM     11  C   UNL     1      -0.014   1.085   0.007  0.00  0.00    +0.000 C 
BRANCH   4  12
ATOM     12  O   UNL     1      -0.522  -0.510  -2.220  0.00  0.00    +0.000 OA
BRANCH  12  14
ATOM     13  C   UNL     1      -0.235  -2.726  -3.190  0.00  0.00    +0.000 C 
ATOM     14  C   UNL     1      -0.801  -1.319  -3.394  0.00  0.00    +0.000 C 
ENDBRANCH  12  14
ENDBRANCH   4  12
ENDBRANCH   1   9
BRANCH   1  15
ATOM     15  N   UNL     1      -1.849   2.188   3.616  0.00  0.00    +0.000 N 
ATOM     16  H   UNL     1      -1.100   1.481   3.594  0.00  0.00    +0.000 HD
BRANCH  15  17
ATOM     17  C   UNL     1      -2.485   2.490   4.815  0.00  0.00    +0.000 A 
ATOM     18  C   UNL     1      -3.493   3.451   4.844  0.00  0.00    +0.000 A 
ATOM     19  C   UNL     1      -4.125   3.748   6.024  0.00  0.00    +0.000 A 
ATOM     20  C   UNL     1      -3.750   3.092   7.201  0.00  0.00    +0.000 A 
ATOM     21  C   UNL     1      -2.733   2.132   7.169  0.00  0.00    +0.000 A 
ATOM     22  C   UNL     1      -2.109   1.836   5.985  0.00  0.00    +0.000 A 
BRANCH  20  23
ATOM     23  C   UNL     1      -4.424   3.413   8.472  0.00  0.00    +0.000 C 
ATOM     24  O   UNL     1      -4.097   2.842   9.493  0.00  0.00    +0.000 OA
ATOM     25  O   UNL     1      -5.403   4.338   8.500  0.00  0.00    +0.000 OA
ENDBRANCH  20  23
ENDBRANCH  15  17
ENDBRANCH   1  15
TORSDOF 6
ENDMDL
MODEL      313
REMARK  Name = ZINC21680390
REMARK  12 active torsions:
REMARK  status: ('A' for Active; 'I' for Inactive)
REMARK    1  A    between atoms: C_1  and  C_2
REMARK    2  A    between atoms: C_2  and  C_3
REMARK    3  A    between atoms: C_2  and  C_4
REMARK    4  A    between atoms: C_4  and  C_5
REMARK    5  A    between atoms: C_4  and  C_6
REMARK    6  A    between atoms: C_4  and  N_8
REMARK    7  A    between atoms: N_8  and  C_9
REMARK    8  A    between atoms: C_9  and  C_11
REMARK    9  A    between atoms: C_11  and  S_12
REMARK   10  A    between atoms: S_12  and  C_13
REMARK   11  A    between atoms: C_16  and  C_19
REMARK   12  A    between atoms: N_17  and  N_18
REMARK                            x       y       z     vdW  Elec       q    Type
REMARK                         _______ _______ _______ _____ _____    ______ ____
ROOT
ATOM      1  S   UNL     1      -2.518   4.470   3.550  0.00  0.00    +0.000 S 
ENDROOT
BRANCH   1   2
ATOM      2  C   UNL     1      -1.749   3.120   2.718  0.00  0.00    +0.000 A 
ATOM      3  N   UNL     1      -1.606   1.899   3.178  0.00  0.00    +0.000 NA
ATOM      4  N   UNL     1      -1.005   1.171   2.305  0.00  0.00    +0.000 NA
ATOM      5  C   UNL     1      -0.722   1.881   1.250  0.00  0.00    +0.000 A 
ATOM      6  N   UNL     1      -1.189   3.147   1.473  0.00  0.00    +0.000 N 
BRANCH   5   7
ATOM      7  C   UNL     1      -0.017   1.395   0.010  0.00  0.00    +0.000 C 
ATOM      8  F   UNL     1       0.002  -0.004   0.002  0.00  0.00    +0.000 F 
ATOM      9  F   UNL     1       1.296   1.879  -0.000  0.00  0.00    +0.000 F 
ATOM     10  F   UNL     1      -0.694   1.858  -1.124  0.00  0.00    +0.000 F 
ENDBRANCH   5   7
BRANCH   6  11
ATOM     11  N   UNL     1      -1.111   4.216   0.626  0.00  0.00    +0.000 N 
ATOM     12  H   UNL     1      -1.526   5.087   0.987  0.00  0.00    +0.000 HD
ATOM     13  H   UNL     1      -0.674   4.175  -0.306  0.00  0.00    +0.000 HD
ENDBRANCH   6  11
ENDBRANCH   1   2
BRANCH   1  14
ATOM     14  C   UNL     1      -2.989   3.658   5.097  0.00  0.00    +0.000 C 
BRANCH  14  15
ATOM     15  C   UNL     1      -3.684   4.650   5.994  0.00  0.00    +0.000 C 
ATOM     16  O   UNL     1      -3.844   5.793   5.623  0.00  0.00    +0.000 OA
BRANCH  15  17
ATOM     17  N   UNL     1      -4.126   4.266   7.208  0.00  0.00    +0.000 NA
BRANCH  17  18
ATOM     18  C   UNL     1      -4.802   5.231   8.079  0.00  0.00    +0.000 C 
ATOM     19  C   UNL     1      -6.055   5.761   7.379  0.00  0.00    +0.000 C 
BRANCH  18  21
ATOM     20  C   UNL     1      -5.793   5.579  10.346  0.00  0.00    +0.000 C 
ATOM     21  C   UNL     1      -5.200   4.545   9.387  0.00  0.00    +0.000 C 
ATOM     22  C   UNL     1      -6.242   3.462   9.098  0.00  0.00    +0.000 C 
ENDBRANCH  18  21
BRANCH  18  23
ATOM     23  C   UNL     1      -3.892   6.351   8.370  0.00  0.00    +0.000 C 
ATOM     24  N   UNL     1      -3.189   7.215   8.595  0.00  0.00    +0.000 NA
ENDBRANCH  18  23
ENDBRANCH  17  18
ENDBRANCH  15  17
ENDBRANCH  14  15
ENDBRANCH   1  14
TORSDOF 9
ENDMDL
MODEL      314
REMARK  Name = ZINC20188388
REMARK  8 active torsions:
REMARK  status: ('A' for Active; 'I' for Inactive)
REMARK    1  A    between atoms: C_1  and  C_2
REMARK    2  A    between atoms: C_2  and  C_4
REMARK    3  A    between atoms: C_8  and  N_10
REMARK    4  A    between atoms: N_10  and  S_11
REMARK    5  A    between atoms: S_11  and  C_14
REMARK    6  A    between atoms: C_17  and  C_20
REMARK    7  A    between atoms: C_20  and  N_21
REMARK    8  A    between atoms: N_21  and  C_22
REMARK                            x       y       z     vdW  Elec       q    Type
REMARK                         _______ _______ _______ _____ _____    ______ ____
ROOT
ATOM      1  S   UNL     1      -0.792   8.018  -0.951  0.00  0.00    +0.000 S 
ATOM      2  O   UNL     1      -1.506   8.393   0.219  0.00  0.00    +0.000 OA
ATOM      3  O   UNL     1       0.547   8.429  -1.191  0.00  0.00    +0.000 OA
ENDROOT
BRANCH   1   4
ATOM      4  C   UNL     1      -0.795   6.257  -1.000  0.00  0.00    +0.000 A 
ATOM      5  C   UNL     1       0.190   5.583  -1.697  0.00  0.00    +0.000 A 
ATOM      6  C   UNL     1       0.188   4.201  -1.735  0.00  0.00    +0.000 A 
ATOM      7  C   UNL     1      -0.799   3.493  -1.076  0.00  0.00    +0.000 A 
ATOM      8  C   UNL     1      -1.788   4.167  -0.384  0.00  0.00    +0.000 A 
ATOM      9  C   UNL     1      -1.784   5.549  -0.342  0.00  0.00    +0.000 A 
BRANCH   7  10
ATOM     10  C   UNL     1      -0.802   1.987  -1.117  0.00  0.00    +0.000 C 
BRANCH  10  11
ATOM     11  N   UNL     1      -0.018   1.465   0.010  0.00  0.00    +0.000 N 
ATOM     12  C   UNL     1       0.002  -0.004   0.002  0.00  0.00    +0.000 C 
ATOM     13  H   UNL     1       0.948   1.817  -0.055  0.00  0.00    +0.000 HD
ATOM     14  H   UNL     1      -0.432   1.793   0.894  0.00  0.00    +0.000 HD
ENDBRANCH  10  11
ENDBRANCH   7  10
ENDBRANCH   1   4
BRANCH   1  15
ATOM     15  N   UNL     1      -1.687   8.546  -2.241  0.00  0.00    +0.000 N 
ATOM     16  H   UNL     1      -1.235   9.078  -2.998  0.00  0.00    +0.000 HD
BRANCH  15  21
ATOM     17  C   UNL     1      -4.986   7.540  -3.543  0.00  0.00    +0.000 A 
ATOM     18  C   UNL     1      -5.778   7.723  -2.404  0.00  0.00    +0.000 A 
ATOM     19  C   UNL     1      -5.206   8.172  -1.232  0.00  0.00    +0.000 A 
ATOM     20  C   UNL     1      -3.851   8.445  -1.177  0.00  0.00    +0.000 A 
ATOM     21  C   UNL     1      -3.055   8.268  -2.303  0.00  0.00    +0.000 A 
ATOM     22  C   UNL     1      -3.618   7.821  -3.488  0.00  0.00    +0.000 A 
BRANCH  17  24
ATOM     23  C   UNL     1      -7.069   6.765  -4.853  0.00  0.00    +0.000 C 
ATOM     24  C   UNL     1      -5.592   7.060  -4.795  0.00  0.00    +0.000 C 
ATOM     25  O   UNL     1      -4.904   6.903  -5.781  0.00  0.00    +0.000 OA
ENDBRANCH  17  24
ENDBRANCH  15  21
ENDBRANCH   1  15
TORSDOF 6
ENDMDL
MODEL      315
REMARK  Name = ZINC23581324
REMARK  7 active torsions:
REMARK  status: ('A' for Active; 'I' for Inactive)
REMARK    1  A    between atoms: N_4  and  C_6
REMARK    2  A    between atoms: C_6  and  C_7
REMARK    3  A    between atoms: C_7  and  N_8
REMARK    4  A    between atoms: C_12  and  N_15
REMARK    5  A    between atoms: C_19  and  C_21
REMARK    6  A    between atoms: C_21  and  C_22
REMARK    7  A    between atoms: C_22  and  N_23
REMARK                            x       y       z     vdW  Elec       q    Type
REMARK                         _______ _______ _______ _____ _____    ______ ____
ROOT
ATOM      1  N   UNL     1      -1.372  -0.511   0.012  0.00  0.00    +0.000 N 
ATOM      2  C   UNL     1      -2.012  -0.731  -1.153  0.00  0.00    +0.000 A 
ATOM      3  O   UNL     1      -1.450  -0.508  -2.214  0.00  0.00    +0.000 OA
ATOM      4  C   UNL     1      -3.325  -1.222  -1.140  0.00  0.00    +0.000 A 
ATOM      5  C   UNL     1      -3.941  -1.460   0.075  0.00  0.00    +0.000 A 
ATOM      6  C   UNL     1      -3.233  -1.209   1.271  0.00  0.00    +0.000 A 
ATOM      7  N   UNL     1      -2.011  -0.758   1.232  0.00  0.00    +0.000 NA
ENDROOT
BRANCH   5   8
ATOM      8  N   UNL     1      -5.238  -1.938   0.118  0.00  0.00    +0.000 N 
ATOM      9  C   UNL     1      -6.138  -0.965   0.753  0.00  0.00    +0.000 C 
ATOM     10  C   UNL     1      -7.569  -1.508   0.727  0.00  0.00    +0.000 C 
ATOM     11  O   UNL     1      -7.603  -2.782   1.377  0.00  0.00    +0.000 OA
ATOM     12  C   UNL     1      -6.738  -3.754   0.784  0.00  0.00    +0.000 C 
ATOM     13  C   UNL     1      -5.298  -3.234   0.811  0.00  0.00    +0.000 C 
BRANCH  12  14
ATOM     14  C   UNL     1      -6.823  -5.062   1.572  0.00  0.00    +0.000 C 
BRANCH  14  15
ATOM     15  C   UNL     1      -8.231  -5.646   1.441  0.00  0.00    +0.000 C 
BRANCH  15  16
ATOM     16  N   UNL     1      -8.313  -6.902   2.198  0.00  0.00    +0.000 N 
ATOM     17  H   UNL     1      -8.110  -6.720   3.191  0.00  0.00    +0.000 HD
ATOM     18  H   UNL     1      -7.628  -7.574   1.825  0.00  0.00    +0.000 HD
ATOM     19  H   UNL     1      -9.261  -7.296   2.110  0.00  0.00    +0.000 HD
ENDBRANCH  15  16
ENDBRANCH  14  15
ENDBRANCH  12  14
ENDBRANCH   5   8
BRANCH   1  20
ATOM     20  C   UNL     1       0.002  -0.004   0.002  0.00  0.00    +0.000 C 
BRANCH  20  21
ATOM     21  C   UNL     1      -0.019   1.526   0.010  0.00  0.00    +0.000 C 
BRANCH  21  25
ATOM     22  C   UNL     1       3.168   3.114  -0.557  0.00  0.00    +0.000 A 
ATOM     23  C   UNL     1       3.448   2.353   0.582  0.00  0.00    +0.000 A 
ATOM     24  N   UNL     1       2.361   1.708   0.920  0.00  0.00    +0.000 NA
ATOM     25  N   UNL     1       1.356   2.033   0.000  0.00  0.00    +0.000 N 
ATOM     26  C   UNL     1       1.875   2.900  -0.894  0.00  0.00    +0.000 A 
ENDBRANCH  21  25
ENDBRANCH  20  21
ENDBRANCH   1  20
TORSDOF 7
ENDMDL
MODEL      316
REMARK  Name = ZINC29471577
REMARK  9 active torsions:
REMARK  status: ('A' for Active; 'I' for Inactive)
REMARK    1  A    between atoms: C_1  and  C_2
REMARK    2  A    between atoms: C_2  and  C_3
REMARK    3  A    between atoms: C_3  and  C_4
REMARK    4  A    between atoms: C_3  and  N_5
REMARK    5  A    between atoms: C_6  and  S_8
REMARK    6  A    between atoms: S_8  and  C_9
REMARK    7  A    between atoms: C_9  and  C_10
REMARK    8  A    between atoms: N_12  and  C_13
REMARK    9  A    between atoms: N_12  and  C_14
REMARK                            x       y       z     vdW  Elec       q    Type
REMARK                         _______ _______ _______ _____ _____    ______ ____
ROOT
ATOM      1  C   UNL     1      -0.247   1.243  -0.073  0.00  0.00    +0.000 C 
ENDROOT
BRANCH   1   2
ATOM      2  C   UNL     1      -1.108   1.819   1.022  0.00  0.00    +0.000 C 
ATOM      3  O   UNL     1      -2.105   2.450   0.740  0.00  0.00    +0.000 OA
ATOM      4  N   UNL     1      -0.770   1.634   2.313  0.00  0.00    +0.000 N 
ATOM      5  C   UNL     1       0.435   0.873   2.653  0.00  0.00    +0.000 C 
BRANCH   4   6
ATOM      6  C   UNL     1      -1.607   2.195   3.377  0.00  0.00    +0.000 C 
ATOM      7  C   UNL     1      -2.131   1.063   4.276  0.00  0.00    +0.000 C 
ATOM      8  C   UNL     1      -2.739   1.655   5.570  0.00  0.00    +0.000 C 
ATOM      9  S   UNL     1      -1.796   3.220   5.780  0.00  0.00    +0.000 S 
ATOM     10  O   UNL     1      -2.694   4.317   5.687  0.00  0.00    +0.000 OA
ATOM     11  O   UNL     1      -0.952   3.102   6.918  0.00  0.00    +0.000 OA
ATOM     12  C   UNL     1      -0.762   3.160   4.257  0.00  0.00    +0.000 C 
ENDBRANCH   4   6
ENDBRANCH   1   2
BRANCH   1  13
ATOM     13  S   UNL     1      -0.960   1.659  -1.683  0.00  0.00    +0.000 S 
BRANCH  13  15
ATOM     14  N   UNL     1       1.231   0.246  -2.239  0.00  0.00    +0.000 N 
ATOM     15  C   UNL     1       0.213   0.884  -2.746  0.00  0.00    +0.000 C 
ATOM     16  N   UNL     1       0.054   0.953  -4.111  0.00  0.00    +0.000 N 
ATOM     17  H   UNL     1       1.397   0.266  -1.223  0.00  0.00    +0.000 HD
ATOM     18  H   UNL     1       0.740   0.500  -4.732  0.00  0.00    +0.000 HD
ATOM     19  H   UNL     1      -0.750   1.457  -4.512  0.00  0.00    +0.000 HD
BRANCH  14  20
ATOM     20  C   UNL     1       2.138  -0.499  -3.115  0.00  0.00    +0.000 C 
ATOM     21  C   UNL     1       2.026  -1.994  -2.812  0.00  0.00    +0.000 C 
BRANCH  20  23
ATOM     22  C   UNL     1       3.719   1.428  -3.293  0.00  0.00    +0.000 C 
ATOM     23  C   UNL     1       3.576  -0.036  -2.872  0.00  0.00    +0.000 C 
ENDBRANCH  20  23
ENDBRANCH  14  20
ENDBRANCH  13  15
ENDBRANCH   1  13
TORSDOF 6
ENDMDL
MODEL      317
REMARK  Name = ZINC21929707
REMARK  8 active torsions:
REMARK  status: ('A' for Active; 'I' for Inactive)
REMARK    1  A    between atoms: C_1  and  C_2
REMARK    2  A    between atoms: C_2  and  C_3
REMARK    3  A    between atoms: C_3  and  N_4
REMARK    4  A    between atoms: N_4  and  C_5
REMARK    5  A    between atoms: N_9  and  C_23
REMARK    6  A    between atoms: N_17  and  C_20
REMARK    7  A    between atoms: C_20  and  C_21
REMARK    8  A    between atoms: C_21  and  O_22
REMARK                            x       y       z     vdW  Elec       q    Type
REMARK                         _______ _______ _______ _____ _____    ______ ____
ROOT
ATOM      1  C   UNL     1      -3.557  -0.114  -0.163  0.00  0.00    +0.000 A 
ATOM      2  C   UNL     1      -3.778  -1.506  -0.182  0.00  0.00    +0.000 A 
ATOM      3  C   UNL     1      -4.926  -2.326  -0.239  0.00  0.00    +0.000 A 
ATOM      4  N   UNL     1      -4.545  -3.571  -0.228  0.00  0.00    +0.000 NA
ATOM      5  N   UNL     1      -3.148  -3.636  -0.165  0.00  0.00    +0.000 N 
ATOM      6  C   UNL     1      -2.662  -2.363  -0.135  0.00  0.00    +0.000 A 
ATOM      7  N   UNL     1      -1.442  -1.829  -0.081  0.00  0.00    +0.000 NA
ATOM      8  C   UNL     1      -1.282  -0.517  -0.060  0.00  0.00    +0.000 A 
ATOM      9  N   UNL     1      -2.306   0.327  -0.102  0.00  0.00    +0.000 NA
ATOM     10  N   UNL     1       0.002  -0.004   0.002  0.00  0.00    +0.000 N 
ATOM     11  C   UNL     1      -0.018   1.465   0.010  0.00  0.00    +0.000 C 
ATOM     12  C   UNL     1       1.419   1.992  -0.001  0.00  0.00    +0.000 C 
ATOM     13  N   UNL     1       2.138   1.472   1.171  0.00  0.00    +0.000 NA
ATOM     14  C   UNL     1       2.158   0.003   1.162  0.00  0.00    +0.000 C 
ATOM     15  C   UNL     1       0.721  -0.525   1.173  0.00  0.00    +0.000 C 
ATOM     16  C   UNL     1      -2.346  -4.862  -0.135  0.00  0.00    +0.000 C 
ENDROOT
BRANCH   1  17
ATOM     17  N   UNL     1      -4.616   0.770  -0.206  0.00  0.00    +0.000 N 
ATOM     18  H   UNL     1      -5.582   0.415  -0.253  0.00  0.00    +0.000 HD
BRANCH  17  19
ATOM     19  C   UNL     1      -4.367   2.214  -0.185  0.00  0.00    +0.000 C 
BRANCH  19  21
ATOM     20  C   UNL     1      -5.439   4.470  -0.220  0.00  0.00    +0.000 C 
ATOM     21  C   UNL     1      -5.700   2.963  -0.241  0.00  0.00    +0.000 C 
ENDBRANCH  19  21
ENDBRANCH  17  19
ENDBRANCH   1  17
BRANCH  13  22
ATOM     22  C   UNL     1       3.501   2.017   1.237  0.00  0.00    +0.000 C 
BRANCH  22  23
ATOM     23  C   UNL     1       3.436   3.523   1.494  0.00  0.00    +0.000 C 
BRANCH  23  24
ATOM     24  O   UNL     1       2.870   3.763   2.784  0.00  0.00    +0.000 OA
ATOM     25  H   UNL     1       3.433   3.334   3.477  0.00  0.00    +0.000 HD
ENDBRANCH  23  24
ENDBRANCH  22  23
ENDBRANCH  13  22
TORSDOF 6
ENDMDL
MODEL      318
REMARK  Name = ZINC29587161
REMARK  10 active torsions:
REMARK  status: ('A' for Active; 'I' for Inactive)
REMARK    1  A    between atoms: C_1  and  C_2
REMARK    2  A    between atoms: C_4  and  N_15
REMARK    3  A    between atoms: C_9  and  C_11
REMARK    4  A    between atoms: N_15  and  C_16
REMARK    5  A    between atoms: C_16  and  C_17
REMARK    6  A    between atoms: C_17  and  C_18
REMARK    7  A    between atoms: C_17  and  O_22
REMARK    8  A    between atoms: C_18  and  N_19
REMARK    9  A    between atoms: N_19  and  C_20
REMARK   10  A    between atoms: N_19  and  C_21
REMARK                            x       y       z     vdW  Elec       q    Type
REMARK                         _______ _______ _______ _____ _____    ______ ____
ROOT
ATOM      1  C   UNL     1      -7.573  -4.306  -0.180  0.00  0.00    +0.000 C 
ATOM      2  C   UNL     1      -6.224  -4.969  -0.293  0.00  0.00    +0.000 A 
ATOM      3  C   UNL     1      -5.069  -4.193  -0.274  0.00  0.00    +0.000 A 
ATOM      4  C   UNL     1      -3.840  -4.817  -0.380  0.00  0.00    +0.000 A 
ATOM      5  N   UNL     1      -3.804  -6.176  -0.505  0.00  0.00    +0.000 N 
ATOM      6  C   UNL     1      -4.965  -6.897  -0.514  0.00  0.00    +0.000 A 
ATOM      7  N   UNL     1      -6.147  -6.278  -0.411  0.00  0.00    +0.000 NA
ATOM      8  N   UNL     1      -4.631  -8.176  -0.639  0.00  0.00    +0.000 NA
ATOM      9  C   UNL     1      -3.311  -8.290  -0.719  0.00  0.00    +0.000 A 
ATOM     10  N   UNL     1      -2.761  -7.102  -0.635  0.00  0.00    +0.000 NA
ENDROOT
BRANCH   9  11
ATOM     11  C   UNL     1      -2.558  -9.586  -0.870  0.00  0.00    +0.000 C 
ATOM     12  F   UNL     1      -2.564 -10.274   0.349  0.00  0.00    +0.000 F 
ATOM     13  F   UNL     1      -3.172 -10.371  -1.851  0.00  0.00    +0.000 F 
ATOM     14  F   UNL     1      -1.238  -9.318  -1.246  0.00  0.00    +0.000 F 
ENDBRANCH   9  11
BRANCH   4  15
ATOM     15  N   UNL     1      -2.676  -4.082  -0.365  0.00  0.00    +0.000 N 
ATOM     16  H   UNL     1      -1.766  -4.558  -0.445  0.00  0.00    +0.000 HD
BRANCH  15  17
ATOM     17  C   UNL     1      -2.732  -2.624  -0.236  0.00  0.00    +0.000 C 
BRANCH  17  18
ATOM     18  C   UNL     1      -1.311  -2.056  -0.247  0.00  0.00    +0.000 C 
BRANCH  18  19
ATOM     19  O   UNL     1      -0.710  -2.300  -1.520  0.00  0.00    +0.000 OA
ATOM     20  H   UNL     1      -1.245  -1.862  -2.228  0.00  0.00    +0.000 HD
ENDBRANCH  18  19
BRANCH  18  21
ATOM     21  C   UNL     1      -1.362  -0.549   0.012  0.00  0.00    +0.000 C 
BRANCH  21  22
ATOM     22  N   UNL     1       0.002  -0.004   0.002  0.00  0.00    +0.000 N 
ATOM     23  C   UNL     1      -0.018   1.465   0.010  0.00  0.00    +0.000 C 
ATOM     24  C   UNL     1       0.786  -0.526   1.129  0.00  0.00    +0.000 C 
ATOM     25  H   UNL     1       0.459  -0.310  -0.869  0.00  0.00    +0.000 HD
ENDBRANCH  21  22
ENDBRANCH  18  21
ENDBRANCH  17  18
ENDBRANCH  15  17
ENDBRANCH   4  15
TORSDOF 7
ENDMDL
MODEL      319
REMARK  Name = ZINC19685094
REMARK  10 active torsions:
REMARK  status: ('A' for Active; 'I' for Inactive)
REMARK    1  A    between atoms: C_1  and  C_2
REMARK    2  A    between atoms: C_2  and  N_3
REMARK    3  A    between atoms: N_3  and  C_4
REMARK    4  A    between atoms: N_3  and  C_6
REMARK    5  A    between atoms: C_4  and  C_5
REMARK    6  A    between atoms: C_7  and  C_22
REMARK    7  A    between atoms: C_11  and  C_16
REMARK    8  A    between atoms: C_16  and  CA_17
REMARK    9  A    between atoms: CA_17  and  C_18
REMARK   10  A    between atoms: CA_17  and  N_21
REMARK                            x       y       z     vdW  Elec       q    Type
REMARK                         _______ _______ _______ _____ _____    ______ ____
ROOT
ATOM      1  C   UNL     1       0.008  -0.011   0.014  0.00  0.00    +0.000 A 
ATOM      2  C   UNL     1       1.209  -0.707   0.290  0.00  0.00    +0.000 A 
ATOM      3  C   UNL     1       2.413  -0.016   0.281  0.00  0.00    +0.000 A 
ATOM      4  C   UNL     1       2.385   1.360  -0.006  0.00  0.00    +0.000 A 
ATOM      5  C   UNL     1       3.567   2.120  -0.032  0.00  0.00    +0.000 A 
ATOM      6  C   UNL     1       3.506   3.451  -0.314  0.00  0.00    +0.000 A 
ATOM      7  C   UNL     1       2.286   4.070  -0.576  0.00  0.00    +0.000 A 
ATOM      8  C   UNL     1       1.122   3.364  -0.560  0.00  0.00    +0.000 A 
ATOM      9  C   UNL     1       1.143   1.988  -0.274  0.00  0.00    +0.000 A 
ATOM     10  N   UNL     1       0.009   1.277  -0.252  0.00  0.00    +0.000 NA
ENDROOT
BRANCH   2  11
ATOM     11  C   UNL     1       1.182  -2.110   0.577  0.00  0.00    +0.000 C 
ATOM     12  N   UNL     1       1.161  -3.222   0.804  0.00  0.00    +0.000 NA
ENDBRANCH   2  11
BRANCH   1  13
ATOM     13  N   UNL     1      -1.192  -0.700   0.023  0.00  0.00    +0.000 N 
BRANCH  13  14
ATOM     14  C   UNL     1      -1.329  -1.534  -1.179  0.00  0.00    +0.000 C 
ATOM     15  C   UNL     1      -1.153  -0.664  -2.425  0.00  0.00    +0.000 C 
ENDBRANCH  13  14
BRANCH  13  17
ATOM     16  C   UNL     1      -3.578  -0.563   0.554  0.00  0.00    +0.000 C 
ATOM     17  C   UNL     1      -2.327   0.223   0.157  0.00  0.00    +0.000 C 
ENDBRANCH  13  17
ENDBRANCH   1  13
BRANCH   6  18
ATOM     18  C   UNL     1       4.775   4.264  -0.341  0.00  0.00    +0.000 C 
BRANCH  18  19
ATOM     19  CA  UNL     1       5.360   4.250  -1.754  0.00  0.00    +0.000 C 
BRANCH  19  20
ATOM     20  N   UNL     1       4.439   4.934  -2.672  0.00  0.00    +0.000 N 
ATOM     21  H1  UNL     1       4.309   5.909  -2.366  0.00  0.00    +0.000 HD
ATOM     22  H2  UNL     1       3.530   4.450  -2.673  0.00  0.00    +0.000 HD
ATOM     23  H3  UNL     1       4.833   4.925  -3.624  0.00  0.00    +0.000 HD
ENDBRANCH  19  20
BRANCH  19  24
ATOM     24  C   UNL     1       6.689   4.959  -1.755  0.00  0.00    +0.000 C 
ATOM     25  O   UNL     1       6.764   6.102  -2.139  0.00  0.00    +0.000 OA
ATOM     26  OXT UNL     1       7.791   4.321  -1.329  0.00  0.00    +0.000 OA
ENDBRANCH  19  24
ENDBRANCH  18  19
ENDBRANCH   6  18
TORSDOF 8
ENDMDL
MODEL      320
REMARK  Name = ZINC18153419
REMARK  7 active torsions:
REMARK  status: ('A' for Active; 'I' for Inactive)
REMARK    1  A    between atoms: C_1  and  O_2
REMARK    2  A    between atoms: O_2  and  C_3
REMARK    3  A    between atoms: C_3  and  C_4
REMARK    4  A    between atoms: C_4  and  N_5
REMARK    5  A    between atoms: C_18  and  S_19
REMARK    6  A    between atoms: S_19  and  C_20
REMARK    7  A    between atoms: C_20  and  C_21
REMARK                            x       y       z     vdW  Elec       q    Type
REMARK                         _______ _______ _______ _____ _____    ______ ____
ROOT
ATOM      1  N   UNL     1       1.503  -4.505   0.058  0.00  0.00    +0.000 N 
ATOM      2  C   UNL     1       1.819  -3.216  -0.241  0.00  0.00    +0.000 C 
ATOM      3  C   UNL     1       0.907  -2.165  -0.479  0.00  0.00    +0.000 C 
ATOM      4  C   UNL     1      -0.491  -2.252  -0.569  0.00  0.00    +0.000 C 
ATOM      5  N   UNL     1      -0.992  -1.061  -0.800  0.00  0.00    +0.000 NA
ATOM      6  C   UNL     1      -0.039  -0.118  -0.883  0.00  0.00    +0.000 A 
ATOM      7  C   UNL     1       1.215  -0.744  -0.689  0.00  0.00    +0.000 A 
ATOM      8  C   UNL     1       2.386   0.009  -0.725  0.00  0.00    +0.000 A 
ATOM      9  C   UNL     1       2.316   1.356  -0.951  0.00  0.00    +0.000 A 
ATOM     10  C   UNL     1       1.088   1.978  -1.143  0.00  0.00    +0.000 A 
ATOM     11  C   UNL     1      -0.074   1.265  -1.112  0.00  0.00    +0.000 A 
ATOM     12  N   UNL     1       3.163  -3.127  -0.273  0.00  0.00    +0.000 N 
ATOM     13  N   UNL     1       3.675  -4.397   0.024  0.00  0.00    +0.000 NA
ATOM     14  C   UNL     1       2.672  -5.207   0.215  0.00  0.00    +0.000 C 
ATOM     15  H   UNL     1       3.713  -2.281  -0.478  0.00  0.00    +0.000 HD
ENDROOT
BRANCH   1  16
ATOM     16  C   UNL     1       0.149  -5.049   0.189  0.00  0.00    +0.000 C 
BRANCH  16  17
ATOM     17  C   UNL     1      -0.385  -5.427  -1.194  0.00  0.00    +0.000 C 
BRANCH  17  19
ATOM     18  C   UNL     1      -0.017  -6.924  -3.030  0.00  0.00    +0.000 C 
ATOM     19  O   UNL     1       0.401  -6.492  -1.733  0.00  0.00    +0.000 OA
ENDBRANCH  17  19
ENDBRANCH  16  17
ENDBRANCH   1  16
BRANCH  14  20
ATOM     20  S   UNL     1       2.796  -6.920   0.610  0.00  0.00    +0.000 S 
BRANCH  20  21
ATOM     21  C   UNL     1       4.596  -7.105   0.645  0.00  0.00    +0.000 C 
BRANCH  21  22
ATOM     22  C   UNL     1       4.948  -8.534   0.973  0.00  0.00    +0.000 C 
ATOM     23  O   UNL     1       4.068  -9.346   1.164  0.00  0.00    +0.000 OA
ATOM     24  N   UNL     1       6.240  -8.908   1.054  0.00  0.00    +0.000 N 
ATOM     25  H   UNL     1       6.987  -8.217   0.892  0.00  0.00    +0.000 HD
ATOM     26  H   UNL     1       6.480  -9.884   1.278  0.00  0.00    +0.000 HD
ENDBRANCH  21  22
ENDBRANCH  20  21
ENDBRANCH  14  20
TORSDOF 6
ENDMDL
MODEL      321
REMARK  Name = ZINC06707904
REMARK  8 active torsions:
REMARK  status: ('A' for Active; 'I' for Inactive)
REMARK    1  A    between atoms: C_1  and  C_2
REMARK    2  A    between atoms: C_2  and  C_4
REMARK    3  A    between atoms: N_8  and  C_10
REMARK    4  A    between atoms: C_10  and  C_11
REMARK    5  A    between atoms: C_10  and  C_23
REMARK    6  A    between atoms: C_11  and  C_12
REMARK    7  A    between atoms: C_11  and  C_18
REMARK    8  A    between atoms: C_18  and  C_21
REMARK                            x       y       z     vdW  Elec       q    Type
REMARK                         _______ _______ _______ _____ _____    ______ ____
ROOT
ATOM      1  C   UNL     1      -2.346   5.222   4.063  0.00  0.00    +0.000 C 
ENDROOT
BRANCH   1   6
ATOM      2  C   UNL     1      -0.870   3.015   1.490  0.00  0.00    +0.000 A 
ATOM      3  C   UNL     1      -0.358   3.950   0.578  0.00  0.00    +0.000 A 
ATOM      4  C   UNL     1      -0.531   5.295   0.851  0.00  0.00    +0.000 A 
ATOM      5  C   UNL     1      -1.189   5.672   2.008  0.00  0.00    +0.000 A 
ATOM      6  N   UNL     1      -1.657   4.771   2.852  0.00  0.00    +0.000 N 
ATOM      7  C   UNL     1      -1.522   3.480   2.636  0.00  0.00    +0.000 A 
BRANCH   2   9
ATOM      8  C   UNL     1      -0.013   1.086   0.008  0.00  0.00    +0.000 C 
ATOM      9  C   UNL     1      -0.718   1.572   1.248  0.00  0.00    +0.000 C 
ATOM     10  O   UNL     1      -1.161   0.773   2.046  0.00  0.00    +0.000 OA
ENDBRANCH   2   9
ENDBRANCH   1   6
BRANCH   1  11
ATOM     11  C   UNL     1      -1.409   6.063   4.891  0.00  0.00    +0.000 C 
ATOM     12  O   UNL     1      -0.277   6.266   4.507  0.00  0.00    +0.000 OA
ATOM     13  N   UNL     1      -1.829   6.590   6.058  0.00  0.00    +0.000 N 
ATOM     14  H   UNL     1      -2.791   6.418   6.385  0.00  0.00    +0.000 HD
ATOM     15  H   UNL     1      -1.189   7.165   6.624  0.00  0.00    +0.000 HD
ENDBRANCH   1  11
BRANCH   1  16
ATOM     16  C   UNL     1      -3.570   6.055   3.674  0.00  0.00    +0.000 C 
BRANCH  16  17
ATOM     17  C   UNL     1      -4.279   6.518   4.920  0.00  0.00    +0.000 A 
ATOM     18  C   UNL     1      -4.432   7.872   5.178  0.00  0.00    +0.000 A 
ATOM     19  C   UNL     1      -5.095   8.252   6.335  0.00  0.00    +0.000 A 
ATOM     20  C   UNL     1      -5.570   7.276   7.191  0.00  0.00    +0.000 A 
ATOM     21  N   UNL     1      -5.402   5.998   6.915  0.00  0.00    +0.000 NA
ATOM     22  C   UNL     1      -4.780   5.600   5.823  0.00  0.00    +0.000 A 
ENDBRANCH  16  17
BRANCH  16  23
ATOM     23  C   UNL     1      -4.507   5.213   2.846  0.00  0.00    +0.000 C 
ATOM     24  C   UNL     1      -4.305   3.927   2.735  0.00  0.00    +0.000 C 
ATOM     25  N   UNL     1      -4.112   2.697   2.628  0.00  0.00    +0.000 NA
ATOM     26  H   UNL     1      -4.836   2.033   2.937  0.00  0.00    +0.000 HD
BRANCH  23  27
ATOM     27  C   UNL     1      -5.619   5.824   2.181  0.00  0.00    +0.000 C 
ATOM     28  N   UNL     1      -6.501   6.308   1.654  0.00  0.00    +0.000 NA
ENDBRANCH  23  27
ENDBRANCH  16  23
ENDBRANCH   1  16
TORSDOF 7
ENDMDL
MODEL      322
REMARK  Name = ZINC05679876
REMARK  8 active torsions:
REMARK  status: ('A' for Active; 'I' for Inactive)
REMARK    1  A    between atoms: C_1  and  N_23
REMARK    2  A    between atoms: C_2  and  N_23
REMARK    3  A    between atoms: C_3  and  C_4
REMARK    4  A    between atoms: C_3  and  N_23
REMARK    5  A    between atoms: C_4  and  C_5
REMARK    6  A    between atoms: C_5  and  N_24
REMARK    7  A    between atoms: N_13  and  C_17
REMARK    8  A    between atoms: C_17  and  C_18
REMARK                            x       y       z     vdW  Elec       q    Type
REMARK                         _______ _______ _______ _____ _____    ______ ____
ROOT
ATOM      1  C   UNL     1       1.202  -2.480  -2.562  0.00  0.00    +0.000 C 
ATOM      2  C   UNL     1       1.439  -3.964  -2.458  0.00  0.00    +0.000 A 
ATOM      3  C   UNL     1       1.577  -4.716  -3.638  0.00  0.00    +0.000 A 
ATOM      4  O   UNL     1       1.503  -4.169  -4.725  0.00  0.00    +0.000 OA
ATOM      5  N   UNL     1       1.792  -6.044  -3.563  0.00  0.00    +0.000 N 
ATOM      6  C   UNL     1       1.879  -6.652  -2.366  0.00  0.00    +0.000 A 
ATOM      7  O   UNL     1       2.078  -7.850  -2.316  0.00  0.00    +0.000 OA
ATOM      8  N   UNL     1       1.750  -5.954  -1.225  0.00  0.00    +0.000 N 
ATOM      9  C   UNL     1       1.522  -4.594  -1.254  0.00  0.00    +0.000 A 
ATOM     10  N   UNL     1       1.379  -3.931  -0.066  0.00  0.00    +0.000 N 
ATOM     11  C   UNL     1       1.601  -2.488  -0.192  0.00  0.00    +0.000 C 
ATOM     12  N   UNL     1       0.723  -1.980  -1.262  0.00  0.00    +0.000 NA
ATOM     13  H   UNL     1       1.890  -6.596  -4.426  0.00  0.00    +0.000 HD
ATOM     14  H   UNL     1       1.141  -4.397   0.822  0.00  0.00    +0.000 HD
ENDROOT
BRANCH   8  15
ATOM     15  C   UNL     1       1.853  -6.644   0.063  0.00  0.00    +0.000 C 
BRANCH  15  16
ATOM     16  C   UNL     1       3.289  -6.645   0.520  0.00  0.00    +0.000 A 
ATOM     17  C   UNL     1       3.876  -5.698   1.273  0.00  0.00    +0.000 A 
ATOM     18  C   UNL     1       5.218  -6.099   1.463  0.00  0.00    +0.000 A 
ATOM     19  C   UNL     1       5.374  -7.264   0.808  0.00  0.00    +0.000 A 
ATOM     20  O   UNL     1       4.202  -7.590   0.238  0.00  0.00    +0.000 OA
ENDBRANCH  15  16
ENDBRANCH   8  15
BRANCH  12  21
ATOM     21  C   UNL     1       0.718  -0.497  -1.257  0.00  0.00    +0.000 C 
BRANCH  21  22
ATOM     22  C   UNL     1       0.002  -0.004   0.002  0.00  0.00    +0.000 C 
BRANCH  22  23
ATOM     23  C   UNL     1      -0.019   1.526   0.010  0.00  0.00    +0.000 C 
BRANCH  23  26
ATOM     24  C   UNL     1       0.054   1.654   2.427  0.00  0.00    +0.000 C 
ATOM     25  C   UNL     1      -0.956   3.446   1.150  0.00  0.00    +0.000 C 
ATOM     26  N   UNL     1      -0.732   1.986   1.220  0.00  0.00    +0.000 N 
ATOM     27  H   UNL     1      -1.643   1.510   1.273  0.00  0.00    +0.000 HD
ENDBRANCH  23  26
ENDBRANCH  22  23
ENDBRANCH  21  22
ENDBRANCH  12  21
TORSDOF 6
ENDMDL
MODEL      323
REMARK  Name = ZINC07578883
REMARK  8 active torsions:
REMARK  status: ('A' for Active; 'I' for Inactive)
REMARK    1  A    between atoms: C_1  and  C_2
REMARK    2  A    between atoms: N_4  and  N_5
REMARK    3  A    between atoms: C_6  and  C_8
REMARK    4  A    between atoms: C_8  and  N_21
REMARK    5  A    between atoms: C_9  and  N_21
REMARK    6  A    between atoms: C_10  and  C_11
REMARK    7  A    between atoms: C_10  and  N_21
REMARK    8  A    between atoms: N_13  and  C_14
REMARK                            x       y       z     vdW  Elec       q    Type
REMARK                         _______ _______ _______ _____ _____    ______ ____
ROOT
ATOM      1  C   UNL     1       1.280   1.980  -0.015  0.00  0.00    +0.000 C 
ENDROOT
BRANCH   1   2
ATOM      2  C   UNL     1      -0.014   1.209   0.005  0.00  0.00    +0.000 C 
ATOM      3  O   UNL     1       0.003  -0.004   0.005  0.00  0.00    +0.000 OA
ATOM      4  N   UNL     1      -1.191   1.867   0.018  0.00  0.00    +0.000 N 
ATOM      5  H   UNL     1      -1.206   2.893   0.104  0.00  0.00    +0.000 HD
BRANCH   4   6
ATOM      6  C   UNL     1      -2.392   1.155  -0.086  0.00  0.00    +0.000 A 
ATOM      7  C   UNL     1      -2.411  -0.091  -0.699  0.00  0.00    +0.000 A 
ATOM      8  C   UNL     1      -3.597  -0.793  -0.795  0.00  0.00    +0.000 A 
ATOM      9  C   UNL     1      -4.766  -0.252  -0.292  0.00  0.00    +0.000 A 
ATOM     10  C   UNL     1      -4.752   0.990   0.314  0.00  0.00    +0.000 A 
ATOM     11  C   UNL     1      -3.568   1.696   0.419  0.00  0.00    +0.000 A 
ATOM     12 CL   UNL     1      -3.550   3.257   1.179  0.00  0.00    +0.000 Cl
ENDBRANCH   4   6
ENDBRANCH   1   2
BRANCH   1  14
ATOM     13  C   UNL     1       2.478   0.277   1.220  0.00  0.00    +0.000 C 
ATOM     14  N   UNL     1       2.405   1.023  -0.054  0.00  0.00    +0.000 NA
BRANCH  14  15
ATOM     15  C   UNL     1       3.674   1.744  -0.291  0.00  0.00    +0.000 C 
BRANCH  15  17
ATOM     16  N   UNL     1       6.020   1.153  -0.806  0.00  0.00    +0.000 N 
ATOM     17  C   UNL     1       4.765   0.736  -0.545  0.00  0.00    +0.000 C 
ATOM     18  O   UNL     1       4.515  -0.450  -0.514  0.00  0.00    +0.000 OA
ATOM     19  H   UNL     1       6.233   2.160  -0.833  0.00  0.00    +0.000 HD
BRANCH  16  23
ATOM     20  C   UNL     1       9.380  -0.374  -1.559  0.00  0.00    +0.000 C 
ATOM     21  C   UNL     1       8.289   0.633  -1.304  0.00  0.00    +0.000 C 
ATOM     22  O   UNL     1       8.540   1.819  -1.335  0.00  0.00    +0.000 OA
ATOM     23  N   UNL     1       7.035   0.216  -1.043  0.00  0.00    +0.000 N 
ATOM     24  H   UNL     1       6.822  -0.791  -1.017  0.00  0.00    +0.000 HD
ENDBRANCH  16  23
ENDBRANCH  15  17
ENDBRANCH  14  15
ENDBRANCH   1  14
TORSDOF 6
ENDMDL
MODEL      324
REMARK  Name = ZINC23294997
REMARK  6 active torsions:
REMARK  status: ('A' for Active; 'I' for Inactive)
REMARK    1  A    between atoms: C_4  and  O_7
REMARK    2  A    between atoms: O_7  and  C_8
REMARK    3  A    between atoms: C_8  and  C_9
REMARK    4  A    between atoms: C_9  and  N_10
REMARK    5  A    between atoms: N_13  and  C_16
REMARK    6  A    between atoms: C_16  and  C_17
REMARK                            x       y       z     vdW  Elec       q    Type
REMARK                         _______ _______ _______ _____ _____    ______ ____
ROOT
ATOM      1  N   UNL     1      -0.834   1.587  -1.249  0.00  0.00    +0.000 N 
ATOM      2  C   UNL     1      -0.098   1.324  -0.005  0.00  0.00    +0.000 C 
ATOM      3  C   UNL     1      -0.921   1.819   1.187  0.00  0.00    +0.000 C 
ATOM      4  N   UNL     1      -1.190   3.256   1.030  0.00  0.00    +0.000 NA
ATOM      5  C   UNL     1      -1.926   3.519  -0.215  0.00  0.00    +0.000 C 
ATOM      6  C   UNL     1      -1.102   3.023  -1.406  0.00  0.00    +0.000 C 
ATOM      7  H   UNL     1      -1.739   1.099  -1.192  0.00  0.00    +0.000 HD
ENDROOT
BRANCH   4   8
ATOM      8  C   UNL     1      -1.915   3.786   2.192  0.00  0.00    +0.000 C 
BRANCH   8   9
ATOM      9  C   UNL     1      -1.029   3.720   3.409  0.00  0.00    +0.000 A 
ATOM     10  N   UNL     1      -1.042   2.644   4.176  0.00  0.00    +0.000 NA
ATOM     11  C   UNL     1      -0.257   2.581   5.250  0.00  0.00    +0.000 A 
ATOM     12  N   UNL     1       0.531   3.605   5.556  0.00  0.00    +0.000 NA
ATOM     13  C   UNL     1       0.538   4.687   4.785  0.00  0.00    +0.000 A 
ATOM     14  N   UNL     1      -0.246   4.741   3.710  0.00  0.00    +0.000 NA
ATOM     15  N   UNL     1       1.355   5.754   5.098  0.00  0.00    +0.000 N 
ATOM     16  N   UNL     1      -0.267   1.455   6.047  0.00  0.00    +0.000 N 
ATOM     17  H   UNL     1       1.961   5.711   5.930  0.00  0.00    +0.000 HD
ATOM     18  H   UNL     1       1.359   6.593   4.500  0.00  0.00    +0.000 HD
ATOM     19  H   UNL     1      -0.882   0.663   5.812  0.00  0.00    +0.000 HD
ATOM     20  H   UNL     1       0.340   1.406   6.878  0.00  0.00    +0.000 HD
ENDBRANCH   8   9
ENDBRANCH   4   8
BRANCH   1  21
ATOM     21  C   UNL     1      -0.109   1.057  -2.412  0.00  0.00    +0.000 C 
BRANCH  21  22
ATOM     22  C   UNL     1      -0.268  -0.464  -2.462  0.00  0.00    +0.000 C 
BRANCH  22  23
ATOM     23  O   UNL     1      -1.641  -0.792  -2.682  0.00  0.00    +0.000 OA
BRANCH  23  27
ATOM     24  C   UNL     1      -2.598  -4.799  -2.899  0.00  0.00    +0.000 A 
ATOM     25  C   UNL     1      -3.589  -3.845  -3.038  0.00  0.00    +0.000 A 
ATOM     26  C   UNL     1      -3.271  -2.502  -2.966  0.00  0.00    +0.000 A 
ATOM     27  C   UNL     1      -1.956  -2.112  -2.754  0.00  0.00    +0.000 A 
ATOM     28  C   UNL     1      -0.964  -3.072  -2.620  0.00  0.00    +0.000 A 
ATOM     29  C   UNL     1      -1.287  -4.413  -2.688  0.00  0.00    +0.000 A 
ENDBRANCH  23  27
ENDBRANCH  22  23
ENDBRANCH  21  22
ENDBRANCH   1  21
TORSDOF 6
ENDMDL
MODEL      325
REMARK  Name = ZINC02075802
REMARK  12 active torsions:
REMARK  status: ('A' for Active; 'I' for Inactive)
REMARK    1  A    between atoms: C_1  and  C_2
REMARK    2  A    between atoms: C_5  and  C_8
REMARK    3  A    between atoms: C_11  and  C_13
REMARK    4  A    between atoms: C_13  and  C_14
REMARK    5  A    between atoms: C_13  and  O_22
REMARK    6  A    between atoms: C_14  and  C_15
REMARK    7  A    between atoms: C_14  and  O_21
REMARK    8  A    between atoms: C_15  and  C_16
REMARK    9  A    between atoms: C_15  and  O_20
REMARK   10  A    between atoms: C_16  and  C_17
REMARK   11  A    between atoms: C_16  and  O_19
REMARK   12  A    between atoms: C_17  and  O_18
REMARK                            x       y       z     vdW  Elec       q    Type
REMARK                         _______ _______ _______ _____ _____    ______ ____
ROOT
ATOM      1  C   UNL     1      -2.221   1.167  -1.159  0.00  0.00    +0.000 C 
ENDROOT
BRANCH   1   5
ATOM      2  C   UNL     1      -4.242   0.307  -4.263  0.00  0.00    +0.000 C 
ATOM      3  N   UNL     1      -4.956   0.741  -3.268  0.00  0.00    +0.000 NA
ATOM      4  N   UNL     1      -4.437   1.492  -2.237  0.00  0.00    +0.000 N 
ATOM      5  C   UNL     1      -2.988   1.779  -2.333  0.00  0.00    +0.000 C 
ATOM      6  S   UNL     1      -2.599   0.912  -3.909  0.00  0.00    +0.000 S 
ATOM      7  H   UNL     1      -5.015   1.830  -1.455  0.00  0.00    +0.000 HD
BRANCH   2  12
ATOM      8  C   UNL     1      -5.969  -2.836  -8.764  0.00  0.00    +0.000 C 
ATOM      9  C   UNL     1      -5.516  -2.014  -7.585  0.00  0.00    +0.000 A 
ATOM     10  C   UNL     1      -6.429  -1.641  -6.614  0.00  0.00    +0.000 A 
ATOM     11  C   UNL     1      -6.022  -0.888  -5.532  0.00  0.00    +0.000 A 
ATOM     12  C   UNL     1      -4.685  -0.501  -5.419  0.00  0.00    +0.000 A 
ATOM     13  C   UNL     1      -3.771  -0.876  -6.405  0.00  0.00    +0.000 A 
ATOM     14  C   UNL     1      -4.190  -1.634  -7.478  0.00  0.00    +0.000 A 
ENDBRANCH   2  12
ENDBRANCH   1   5
BRANCH   1  15
ATOM     15  O   UNL     1      -2.788   1.625   0.071  0.00  0.00    +0.000 OA
ATOM     16  H   UNL     1      -3.738   1.350   0.119  0.00  0.00    +0.000 HD
ENDBRANCH   1  15
BRANCH   1  17
ATOM     17  C   UNL     1      -0.753   1.593  -1.232  0.00  0.00    +0.000 C 
BRANCH  17  18
ATOM     18  O   UNL     1      -0.672   3.018  -1.285  0.00  0.00    +0.000 OA
ATOM     19  H   UNL     1      -1.086   3.404  -0.473  0.00  0.00    +0.000 HD
ENDBRANCH  17  18
BRANCH  17  20
ATOM     20  C   UNL     1      -0.013   1.086   0.008  0.00  0.00    +0.000 C 
BRANCH  20  21
ATOM     21  O   UNL     1      -0.682   1.547   1.184  0.00  0.00    +0.000 OA
ATOM     22  H   UNL     1      -1.611   1.204   1.192  0.00  0.00    +0.000 HD
ENDBRANCH  20  21
BRANCH  20  23
ATOM     23  C   UNL     1       1.423   1.615  -0.003  0.00  0.00    +0.000 C 
BRANCH  23  24
ATOM     24  O   UNL     1       1.404   3.040  -0.112  0.00  0.00    +0.000 OA
ATOM     25  H   UNL     1       0.917   3.425   0.659  0.00  0.00    +0.000 HD
ENDBRANCH  23  24
BRANCH  23  26
ATOM     26  C   UNL     1       2.125   1.213   1.296  0.00  0.00    +0.000 C 
BRANCH  26  27
ATOM     27  O   UNL     1       3.497   1.606   1.237  0.00  0.00    +0.000 OA
ATOM     28  H   UNL     1       3.556   2.587   1.121  0.00  0.00    +0.000 HD
ENDBRANCH  26  27
ENDBRANCH  23  26
ENDBRANCH  20  23
ENDBRANCH  17  20
ENDBRANCH   1  17
TORSDOF 11
ENDMDL
MODEL      326
REMARK  Name = ZINC00192129
REMARK  9 active torsions:
REMARK  status: ('A' for Active; 'I' for Inactive)
REMARK    1  A    between atoms: C_1  and  C_2
REMARK    2  A    between atoms: C_2  and  C_3
REMARK    3  A    between atoms: C_2  and  C_4
REMARK    4  A    between atoms: C_4  and  C_5
REMARK    5  A    between atoms: C_5  and  N_6
REMARK    6  A    between atoms: N_13  and  C_22
REMARK    7  A    between atoms: C_16  and  S_17
REMARK    8  A    between atoms: S_17  and  C_18
REMARK    9  A    between atoms: C_18  and  C_19
REMARK                            x       y       z     vdW  Elec       q    Type
REMARK                         _______ _______ _______ _____ _____    ______ ____
ROOT
ATOM      1  N   UNL     1      -1.097  -0.806   0.014  0.00  0.00    +0.000 N 
ATOM      2  C   UNL     1      -0.636  -2.116  -0.004  0.00  0.00    +0.000 A 
ATOM      3  C   UNL     1      -1.257  -3.377  -0.004  0.00  0.00    +0.000 A 
ATOM      4  O   UNL     1      -2.473  -3.465   0.006  0.00  0.00    +0.000 OA
ATOM      5  N   UNL     1      -0.493  -4.489  -0.017  0.00  0.00    +0.000 N 
ATOM      6  C   UNL     1       0.848  -4.407  -0.029  0.00  0.00    +0.000 A 
ATOM      7  O   UNL     1       1.505  -5.431  -0.040  0.00  0.00    +0.000 OA
ATOM      8  N   UNL     1       1.483  -3.220  -0.028  0.00  0.00    +0.000 N 
ATOM      9  C   UNL     1       0.753  -2.042  -0.016  0.00  0.00    +0.000 A 
ATOM     10  N   UNL     1       1.088  -0.751  -0.012  0.00  0.00    +0.000 NA
ATOM     11  C   UNL     1       0.002  -0.004   0.002  0.00  0.00    +0.000 A 
ATOM     12  C   UNL     1       2.947  -3.173  -0.042  0.00  0.00    +0.000 C 
ATOM     13  H   UNL     1      -0.945  -5.414  -0.017  0.00  0.00    +0.000 HD
ENDROOT
BRANCH   1  14
ATOM     14  C   UNL     1      -2.496  -0.371   0.037  0.00  0.00    +0.000 C 
BRANCH  14  15
ATOM     15  C   UNL     1      -3.004  -0.212  -1.397  0.00  0.00    +0.000 C 
BRANCH  15  17
ATOM     16  C   UNL     1      -4.936   0.521  -2.802  0.00  0.00    +0.000 C 
ATOM     17  C   UNL     1      -4.465   0.242  -1.373  0.00  0.00    +0.000 C 
ATOM     18  C   UNL     1      -5.331  -0.859  -0.756  0.00  0.00    +0.000 C 
ENDBRANCH  15  17
ENDBRANCH  14  15
ENDBRANCH   1  14
BRANCH  11  19
ATOM     19  S   UNL     1      -0.022   1.758   0.012  0.00  0.00    +0.000 S 
BRANCH  19  20
ATOM     20  C   UNL     1       1.756   2.096  -0.004  0.00  0.00    +0.000 C 
BRANCH  20  21
ATOM     21  C   UNL     1       1.984   3.586   0.002  0.00  0.00    +0.000 C 
ATOM     22  O   UNL     1       1.037   4.344   0.015  0.00  0.00    +0.000 OA
ATOM     23  N   UNL     1       3.240   4.076  -0.007  0.00  0.00    +0.000 N 
ATOM     24  H   UNL     1       4.043   3.432  -0.018  0.00  0.00    +0.000 HD
ATOM     25  H   UNL     1       3.395   5.094  -0.003  0.00  0.00    +0.000 HD
ENDBRANCH  20  21
ENDBRANCH  19  20
ENDBRANCH  11  19
TORSDOF 6
ENDMDL
MODEL      327
REMARK  Name = ZINC29854931
REMARK  8 active torsions:
REMARK  status: ('A' for Active; 'I' for Inactive)
REMARK    1  A    between atoms: C_1  and  C_2
REMARK    2  A    between atoms: C_5  and  C_7
REMARK    3  A    between atoms: C_9  and  C_12
REMARK    4  A    between atoms: N_14  and  C_15
REMARK    5  A    between atoms: C_15  and  C_16
REMARK    6  A    between atoms: C_16  and  N_17
REMARK    7  A    between atoms: N_17  and  S_18
REMARK    8  A    between atoms: S_18  and  C_21
REMARK                            x       y       z     vdW  Elec       q    Type
REMARK                         _______ _______ _______ _____ _____    ______ ____
ROOT
ATOM      1  C   UNL     1       2.546   1.299  -0.016  0.00  0.00    +0.000 A 
ATOM      2  C   UNL     1       3.684   2.062  -0.028  0.00  0.00    +0.000 A 
ATOM      3  C   UNL     1       4.753   1.141  -0.038  0.00  0.00    +0.000 A 
ATOM      4  N   UNL     1       4.231  -0.069  -0.041  0.00  0.00    +0.000 NA
ATOM      5  N   UNL     1       2.948  -0.006  -0.028  0.00  0.00    +0.000 N 
ATOM      6  H   UNL     1       2.316  -0.819  -0.027  0.00  0.00    +0.000 HD
ENDROOT
BRANCH   1  11
ATOM      7  C   UNL     1      -2.351   4.081   0.046  0.00  0.00    +0.000 C 
ATOM      8  C   UNL     1      -1.190   3.120   0.030  0.00  0.00    +0.000 A 
ATOM      9  C   UNL     1      -1.207   1.762   0.017  0.00  0.00    +0.000 A 
ATOM     10  C   UNL     1      -0.013   1.076   0.008  0.00  0.00    +0.000 A 
ATOM     11  C   UNL     1       1.157   1.791   0.001  0.00  0.00    +0.000 A 
ATOM     12  S   UNL     1       0.560   3.473   0.015  0.00  0.00    +0.000 S 
ENDBRANCH   1  11
BRANCH   3  13
ATOM     13  C   UNL     1       6.193   1.473  -0.051  0.00  0.00    +0.000 C 
ATOM     14  O   UNL     1       6.549   2.636  -0.047  0.00  0.00    +0.000 OA
ATOM     15  N   UNL     1       7.112   0.487  -0.066  0.00  0.00    +0.000 N 
ATOM     16  H   UNL     1       6.810  -0.498  -0.069  0.00  0.00    +0.000 HD
BRANCH  15  17
ATOM     17  C   UNL     1       8.539   0.816  -0.078  0.00  0.00    +0.000 C 
BRANCH  17  18
ATOM     18  C   UNL     1       9.360  -0.475  -0.094  0.00  0.00    +0.000 C 
BRANCH  18  19
ATOM     19  N   UNL     1      10.788  -0.146  -0.107  0.00  0.00    +0.000 NA
ATOM     20  H   UNL     1      11.094   0.811  -0.335  0.00  0.00    +0.000 HD
BRANCH  19  21
ATOM     21  S   UNL     1      11.909  -1.312   0.246  0.00  0.00    +0.000 S 
ATOM     22  O   UNL     1      13.162  -0.647   0.165  0.00  0.00    +0.000 OA
ATOM     23  O   UNL     1      11.469  -1.880   1.472  0.00  0.00    +0.000 OA
ATOM     24  C   UNL     1      11.758  -2.525  -1.094  0.00  0.00    +0.000 C 
ENDBRANCH  19  21
ENDBRANCH  18  19
ENDBRANCH  17  18
ENDBRANCH  15  17
ENDBRANCH   3  13
TORSDOF 6
ENDMDL
MODEL      328
REMARK  Name = ZINC07699012
REMARK  7 active torsions:
REMARK  status: ('A' for Active; 'I' for Inactive)
REMARK    1  A    between atoms: C_1  and  O_2
REMARK    2  A    between atoms: O_2  and  C_3
REMARK    3  A    between atoms: C_3  and  C_4
REMARK    4  A    between atoms: C_4  and  N_5
REMARK    5  A    between atoms: C_9  and  C_11
REMARK    6  A    between atoms: C_11  and  S_12
REMARK    7  A    between atoms: S_12  and  C_13
REMARK                            x       y       z     vdW  Elec       q    Type
REMARK                         _______ _______ _______ _____ _____    ______ ____
ROOT
ATOM      1  N   UNL     1       5.568  -6.906  -0.114  0.00  0.00    +0.000 N 
ATOM      2  C   UNL     1       5.683  -5.564  -0.106  0.00  0.00    +0.000 C 
ATOM      3  O   UNL     1       6.783  -5.047  -0.116  0.00  0.00    +0.000 OA
ATOM      4  N   UNL     1       4.577  -4.793  -0.087  0.00  0.00    +0.000 N 
ATOM      5  C   UNL     1       4.691  -3.450  -0.079  0.00  0.00    +0.000 C 
ATOM      6  O   UNL     1       5.789  -2.935  -0.089  0.00  0.00    +0.000 OA
ATOM      7  H   UNL     1       4.636  -7.344  -0.105  0.00  0.00    +0.000 HD
ATOM      8  H   UNL     1       3.644  -5.231  -0.078  0.00  0.00    +0.000 HD
ENDROOT
BRANCH   1   9
ATOM      9  C   UNL     1       6.770  -7.744  -0.135  0.00  0.00    +0.000 C 
BRANCH   9  10
ATOM     10  C   UNL     1       6.364  -9.219  -0.140  0.00  0.00    +0.000 C 
BRANCH  10  12
ATOM     11  C   UNL     1       5.248 -10.879  -1.460  0.00  0.00    +0.000 C 
ATOM     12  O   UNL     1       5.673  -9.519  -1.354  0.00  0.00    +0.000 OA
ENDBRANCH  10  12
ENDBRANCH   9  10
ENDBRANCH   1   9
BRANCH   5  13
ATOM     13  C   UNL     1       3.455  -2.589  -0.058  0.00  0.00    +0.000 C 
BRANCH  13  14
ATOM     14  S   UNL     1       3.936  -0.840  -0.052  0.00  0.00    +0.000 S 
BRANCH  14  15
ATOM     15  C   UNL     1       2.401   0.025  -0.026  0.00  0.00    +0.000 A 
ATOM     16  C   UNL     1       1.205  -0.682  -0.016  0.00  0.00    +0.000 A 
ATOM     17  C   UNL     1       0.002  -0.004   0.002  0.00  0.00    +0.000 A 
ATOM     18  C   UNL     1      -0.017   1.383   0.010  0.00  0.00    +0.000 A 
ATOM     19  C   UNL     1       1.178   2.093   0.002  0.00  0.00    +0.000 A 
ATOM     20  C   UNL     1       2.386   1.413  -0.017  0.00  0.00    +0.000 A 
ATOM     21  O   UNL     1       1.179   3.454   0.018  0.00  0.00    +0.000 OA
ATOM     22  C   UNL     1      -0.045   4.104  -0.340  0.00  0.00    +0.000 C 
ATOM     23  C   UNL     1      -1.193   3.412   0.408  0.00  0.00    +0.000 C 
ATOM     24  O   UNL     1      -1.214   2.034   0.019  0.00  0.00    +0.000 OA
ENDBRANCH  14  15
ENDBRANCH  13  14
ENDBRANCH   5  13
TORSDOF 6
ENDMDL
MODEL      329
REMARK  Name = ZINC20341890
REMARK  9 active torsions:
REMARK  status: ('A' for Active; 'I' for Inactive)
REMARK    1  A    between atoms: C_1  and  C_2
REMARK    2  A    between atoms: C_3  and  C_23
REMARK    3  A    between atoms: C_5  and  N_10
REMARK    4  A    between atoms: C_6  and  C_7
REMARK    5  A    between atoms: C_11  and  C_13
REMARK    6  A    between atoms: C_13  and  N_14
REMARK    7  A    between atoms: C_19  and  C_20
REMARK    8  A    between atoms: C_20  and  C_21
REMARK    9  A    between atoms: C_21  and  O_22
REMARK                            x       y       z     vdW  Elec       q    Type
REMARK                         _______ _______ _______ _____ _____    ______ ____
ROOT
ATOM      1  N   UNL     1      -0.529   1.293  -4.914  0.00  0.00    +0.000 N 
ATOM      2  C   UNL     1      -0.984   1.475  -3.659  0.00  0.00    +0.000 C 
ATOM      3  O   UNL     1      -2.088   1.943  -3.476  0.00  0.00    +0.000 OA
ATOM      4  H   UNL     1       0.408   0.895  -5.070  0.00  0.00    +0.000 HD
ENDROOT
BRANCH   1   9
ATOM      5  C   UNL     1      -1.850   1.902  -9.764  0.00  0.00    +0.000 C 
ATOM      6  C   UNL     1      -2.053   1.974  -8.272  0.00  0.00    +0.000 A 
ATOM      7  C   UNL     1      -3.192   2.454  -7.742  0.00  0.00    +0.000 A 
ATOM      8  S   UNL     1      -2.919   2.313  -5.988  0.00  0.00    +0.000 S 
ATOM      9  C   UNL     1      -1.323   1.641  -5.996  0.00  0.00    +0.000 A 
ATOM     10  C   UNL     1      -1.032   1.530  -7.352  0.00  0.00    +0.000 A 
ATOM     11  C   UNL     1      -4.408   2.979  -8.459  0.00  0.00    +0.000 C 
BRANCH  10  12
ATOM     12  C   UNL     1       0.245   0.990  -7.823  0.00  0.00    +0.000 C 
ATOM     13  O   UNL     1       0.362  -0.203  -8.027  0.00  0.00    +0.000 OA
ATOM     14  O   UNL     1       1.291   1.816  -8.030  0.00  0.00    +0.000 OA
ENDBRANCH  10  12
ENDBRANCH   1   9
BRANCH   2  15
ATOM     15  C   UNL     1      -0.122   1.096  -2.483  0.00  0.00    +0.000 C 
BRANCH  15  16
ATOM     16  N   UNL     1      -0.781   1.513  -1.238  0.00  0.00    +0.000 NA
ATOM     17  C   UNL     1      -0.999   2.966  -1.219  0.00  0.00    +0.000 C 
ATOM     18  C   UNL     1      -1.551   3.382   0.146  0.00  0.00    +0.000 C 
ATOM     19  C   UNL     1      -2.869   2.646   0.405  0.00  0.00    +0.000 C 
ATOM     20  C   UNL     1      -2.623   1.136   0.331  0.00  0.00    +0.000 C 
ATOM     21  C   UNL     1      -2.040   0.785  -1.039  0.00  0.00    +0.000 C 
BRANCH  21  22
ATOM     22  C   UNL     1      -1.775  -0.720  -1.109  0.00  0.00    +0.000 C 
BRANCH  22  23
ATOM     23  C   UNL     1      -3.099  -1.478  -0.991  0.00  0.00    +0.000 C 
BRANCH  23  24
ATOM     24  O   UNL     1      -2.843  -2.884  -0.970  0.00  0.00    +0.000 OA
ATOM     25  H   UNL     1      -2.268  -3.103  -0.195  0.00  0.00    +0.000 HD
ENDBRANCH  23  24
ENDBRANCH  22  23
ENDBRANCH  21  22
ENDBRANCH  15  16
ENDBRANCH   2  15
TORSDOF 7
ENDMDL
MODEL      330
REMARK  Name = ZINC20381076
REMARK  6 active torsions:
REMARK  status: ('A' for Active; 'I' for Inactive)
REMARK    1  A    between atoms: C_6  and  C_7
REMARK    2  A    between atoms: N_9  and  C_10
REMARK    3  A    between atoms: N_16  and  C_17
REMARK    4  A    between atoms: C_17  and  C_18
REMARK    5  A    between atoms: C_18  and  C_19
REMARK    6  A    between atoms: C_19  and  O_20
REMARK                            x       y       z     vdW  Elec       q    Type
REMARK                         _______ _______ _______ _____ _____    ______ ____
ROOT
ATOM      1  C   UNL     1       4.484  -2.589   3.280  0.00  0.00    +0.000 C 
ATOM      2  O   UNL     1       4.690  -3.357   4.199  0.00  0.00    +0.000 OA
ATOM      3  N   UNL     1       5.489  -1.831   2.797  0.00  0.00    +0.000 N 
ATOM      4  H   UNL     1       5.333  -1.234   1.972  0.00  0.00    +0.000 HD
ENDROOT
BRANCH   1  10
ATOM      5  C   UNL     1       2.896  -1.603   1.637  0.00  0.00    +0.000 A 
ATOM      6  C   UNL     1       1.634  -1.508   1.090  0.00  0.00    +0.000 A 
ATOM      7  C   UNL     1       0.597  -2.287   1.585  0.00  0.00    +0.000 A 
ATOM      8  C   UNL     1       0.829  -3.171   2.640  0.00  0.00    +0.000 A 
ATOM      9  C   UNL     1       2.091  -3.270   3.192  0.00  0.00    +0.000 A 
ATOM     10  C   UNL     1       3.134  -2.485   2.693  0.00  0.00    +0.000 A 
ATOM     11  O   UNL     1      -0.340  -3.811   2.936  0.00  0.00    +0.000 OA
ATOM     12  C   UNL     1      -1.187  -3.613   1.789  0.00  0.00    +0.000 C 
ATOM     13  O   UNL     1      -0.714  -2.376   1.223  0.00  0.00    +0.000 OA
ENDBRANCH   1  10
BRANCH   3  14
ATOM     14  C   UNL     1       6.745  -1.856   3.416  0.00  0.00    +0.000 A 
ATOM     15  C   UNL     1       7.233  -3.036   3.976  0.00  0.00    +0.000 A 
ATOM     16  C   UNL     1       8.478  -3.015   4.577  0.00  0.00    +0.000 A 
ATOM     17  C   UNL     1       9.198  -1.825   4.603  0.00  0.00    +0.000 A 
ATOM     18  N   UNL     1       8.704  -0.723   4.061  0.00  0.00    +0.000 NA
ATOM     19  C   UNL     1       7.521  -0.709   3.475  0.00  0.00    +0.000 A 
ATOM     20  N   UNL     1      10.453  -1.793   5.205  0.00  0.00    +0.000 N 
ATOM     21  H   UNL     1      10.991  -0.915   5.227  0.00  0.00    +0.000 HD
BRANCH  20  22
ATOM     22  C   UNL     1      11.008  -3.009   5.806  0.00  0.00    +0.000 C 
BRANCH  22  23
ATOM     23  C   UNL     1      12.387  -2.703   6.394  0.00  0.00    +0.000 C 
BRANCH  23  24
ATOM     24  C   UNL     1      12.967  -3.972   7.022  0.00  0.00    +0.000 C 
BRANCH  24  25
ATOM     25  O   UNL     1      14.255  -3.686   7.571  0.00  0.00    +0.000 OA
ATOM     26  H   UNL     1      14.171  -2.984   8.264  0.00  0.00    +0.000 HD
ENDBRANCH  24  25
ENDBRANCH  23  24
ENDBRANCH  22  23
ENDBRANCH  20  22
ENDBRANCH   3  14
TORSDOF 6
ENDMDL
MODEL      331
REMARK  Name = ZINC05958054
REMARK  8 active torsions:
REMARK  status: ('A' for Active; 'I' for Inactive)
REMARK    1  A    between atoms: C_1  and  N_14
REMARK    2  A    between atoms: C_2  and  N_14
REMARK    3  A    between atoms: C_3  and  C_4
REMARK    4  A    between atoms: C_3  and  N_14
REMARK    5  A    between atoms: N_7  and  O_8
REMARK    6  A    between atoms: O_8  and  P_9
REMARK    7  A    between atoms: P_9  and  O_11
REMARK    8  A    between atoms: O_11  and  C_12
REMARK                            x       y       z     vdW  Elec       q    Type
REMARK                         _______ _______ _______ _____ _____    ______ ____
ROOT
ATOM      1  C   UNL     1      -0.810   1.622  -1.198  0.00  0.00    +0.000 C 
ATOM      2  C   UNL     1      -0.013   1.086   0.008  0.00  0.00    +0.000 C 
ATOM      3  C   UNL     1      -1.778   2.273   0.789  0.00  0.00    +0.000 C 
ATOM      4  N   UNL     1      -1.915   2.365  -0.569  0.00  0.00    +0.000 N 
ATOM      5  N   UNL     1      -2.655   2.863   1.669  0.00  0.00    +0.000 N 
ATOM      6  N   UNL     1      -0.750   1.584   1.180  0.00  0.00    +0.000 N 
ATOM      7  H   UNL     1      -3.446   3.395   1.279  0.00  0.00    +0.000 HD
ATOM      8  H   UNL     1      -2.530   2.780   2.688  0.00  0.00    +0.000 HD
ATOM      9  H   UNL     1      -0.489   1.412   2.161  0.00  0.00    +0.000 HD
ENDROOT
BRANCH   1  10
ATOM     10  C   UNL     1       0.056   2.557  -2.045  0.00  0.00    +0.000 C 
BRANCH  10  13
ATOM     11  C   UNL     1      -0.037   4.248  -3.775  0.00  0.00    +0.000 C 
ATOM     12  C   UNL     1      -1.238   2.164  -4.053  0.00  0.00    +0.000 C 
ATOM     13  N   UNL     1      -0.792   3.183  -3.081  0.00  0.00    +0.000 N 
ATOM     14  H   UNL     1      -1.619   3.599  -2.630  0.00  0.00    +0.000 HD
ENDBRANCH  10  13
ENDBRANCH   1  10
BRANCH   4  15
ATOM     15  O   UNL     1      -2.943   3.057  -1.253  0.00  0.00    +0.000 OA
BRANCH  15  16
ATOM     16  P   UNL     1      -4.240   2.156  -1.568  0.00  0.00    +0.000 P 
ATOM     17  O   UNL     1      -3.849   1.007  -2.415  0.00  0.00    +0.000 OA
ATOM     18  O   UNL     1      -4.868   1.616  -0.188  0.00  0.00    +0.000 OA
BRANCH  16  19
ATOM     19  O   UNL     1      -5.335   3.046  -2.344  0.00  0.00    +0.000 OA
ATOM     20  C   UNL     1      -6.556   2.506  -2.855  0.00  0.00    +0.000 C 
ENDBRANCH  16  19
ENDBRANCH  15  16
ENDBRANCH   4  15
TORSDOF 5
ENDMDL
MODEL      332
REMARK  Name = ZINC04226538
REMARK  7 active torsions:
REMARK  status: ('A' for Active; 'I' for Inactive)
REMARK    1  A    between atoms: C_1  and  C_2
REMARK    2  A    between atoms: C_4  and  N_13
REMARK    3  A    between atoms: C_8  and  C_11
REMARK    4  A    between atoms: N_13  and  C_14
REMARK    5  A    between atoms: C_14  and  C_15
REMARK    6  A    between atoms: C_15  and  C_16
REMARK    7  A    between atoms: C_16  and  O_17
REMARK                            x       y       z     vdW  Elec       q    Type
REMARK                         _______ _______ _______ _____ _____    ______ ____
ROOT
ATOM      1  C   UNL     1      -3.400   3.402  -5.229  0.00  0.00    +0.000 C 
ATOM      2  C   UNL     1      -2.162   2.554  -5.096  0.00  0.00    +0.000 A 
ATOM      3  C   UNL     1      -1.697   2.231  -3.827  0.00  0.00    +0.000 A 
ATOM      4  C   UNL     1      -0.557   1.456  -3.690  0.00  0.00    +0.000 A 
ATOM      5  C   UNL     1       0.088   1.011  -4.870  0.00  0.00    +0.000 A 
ATOM      6  C   UNL     1       1.244   0.217  -4.809  0.00  0.00    +0.000 A 
ATOM      7  C   UNL     1       1.845  -0.197  -5.955  0.00  0.00    +0.000 A 
ATOM      8  C   UNL     1       1.321   0.161  -7.209  0.00  0.00    +0.000 A 
ATOM      9  C   UNL     1       0.182   0.943  -7.299  0.00  0.00    +0.000 A 
ATOM     10  C   UNL     1      -0.452   1.380  -6.125  0.00  0.00    +0.000 A 
ATOM     11  N   UNL     1      -1.585   2.157  -6.253  0.00  0.00    +0.000 N 
ATOM     12  H   UNL     1      -1.968   2.418  -7.172  0.00  0.00    +0.000 HD
ENDROOT
BRANCH   8  13
ATOM     13  C   UNL     1       1.992  -0.301  -8.442  0.00  0.00    +0.000 C 
ATOM     14  O   UNL     1       1.544   0.005  -9.529  0.00  0.00    +0.000 OA
ATOM     15  O   UNL     1       3.101  -1.062  -8.361  0.00  0.00    +0.000 OA
ENDBRANCH   8  13
BRANCH   4  16
ATOM     16  N   UNL     1      -0.067   1.120  -2.437  0.00  0.00    +0.000 N 
ATOM     17  H   UNL     1       0.779   0.539  -2.353  0.00  0.00    +0.000 HD
BRANCH  16  18
ATOM     18  C   UNL     1      -0.753   1.593  -1.232  0.00  0.00    +0.000 C 
BRANCH  18  19
ATOM     19  C   UNL     1      -0.013   1.086   0.008  0.00  0.00    +0.000 C 
BRANCH  19  20
ATOM     20  C   UNL     1      -0.729   1.579   1.267  0.00  0.00    +0.000 C 
BRANCH  20  21
ATOM     21  O   UNL     1      -0.038   1.106   2.425  0.00  0.00    +0.000 OA
ATOM     22  H   UNL     1       0.891   1.448   2.418  0.00  0.00    +0.000 HD
ENDBRANCH  20  21
ENDBRANCH  19  20
ENDBRANCH  18  19
ENDBRANCH  16  18
ENDBRANCH   4  16
TORSDOF 6
ENDMDL
MODEL      333
REMARK  Name = ZINC21985365
REMARK  10 active torsions:
REMARK  status: ('A' for Active; 'I' for Inactive)
REMARK    1  A    between atoms: C_1  and  C_2
REMARK    2  A    between atoms: C_3  and  O_16
REMARK    3  A    between atoms: C_4  and  N_13
REMARK    4  A    between atoms: C_5  and  N_12
REMARK    5  A    between atoms: C_6  and  O_8
REMARK    6  A    between atoms: O_8  and  C_9
REMARK    7  A    between atoms: C_9  and  C_10
REMARK    8  A    between atoms: C_9  and  C_11
REMARK    9  A    between atoms: O_16  and  C_17
REMARK   10  A    between atoms: C_17  and  C_19
REMARK                            x       y       z     vdW  Elec       q    Type
REMARK                         _______ _______ _______ _____ _____    ______ ____
ROOT
ATOM      1  C   UNL     1       1.971   5.649  -0.075  0.00  0.00    +0.000 C 
ATOM      2  C   UNL     1       2.264   4.148  -0.032  0.00  0.00    +0.000 C 
ATOM      3  C   UNL     1       0.948   3.369  -0.104  0.00  0.00    +0.000 C 
ATOM      4  C   UNL     1       1.246   1.869   0.000  0.00  0.00    +0.000 C 
ATOM      5  C   UNL     1       2.010   1.601   1.300  0.00  0.00    +0.000 C 
ATOM      6  C   UNL     1       3.285   2.448   1.317  0.00  0.00    +0.000 C 
ATOM      7  O   UNL     1       2.940   3.829   1.186  0.00  0.00    +0.000 OA
ENDROOT
BRANCH   5   8
ATOM      8  N   UNL     1       1.167   1.957   2.449  0.00  0.00    +0.000 N 
ATOM      9  H   UNL     1       0.307   1.389   2.433  0.00  0.00    +0.000 HD
ATOM     10  H   UNL     1       0.919   2.955   2.397  0.00  0.00    +0.000 HD
ATOM     11  H   UNL     1       1.681   1.776   3.323  0.00  0.00    +0.000 HD
ENDBRANCH   5   8
BRANCH   4  12
ATOM     12  N   UNL     1      -0.013   1.120   0.008  0.00  0.00    +0.000 NA
ATOM     13  N   UNL     1       0.002  -0.004   0.002  0.00  0.00    +0.000 NA
ATOM     14  N   UNL     1       0.017  -1.128  -0.004  0.00  0.00    +0.000 NA
ENDBRANCH   4  12
BRANCH   6  15
ATOM     15  O   UNL     1       4.128   2.063   0.230  0.00  0.00    +0.000 OA
BRANCH  15  16
ATOM     16  C   UNL     1       5.439   2.630   0.282  0.00  0.00    +0.000 C 
ATOM     17  C   UNL     1       6.368   1.696   1.061  0.00  0.00    +0.000 C 
ATOM     18  C   UNL     1       5.973   2.810  -1.140  0.00  0.00    +0.000 C 
ENDBRANCH  15  16
ENDBRANCH   6  15
BRANCH   3  19
ATOM     19  O   UNL     1       0.288   3.646  -1.367  0.00  0.00    +0.000 OA
BRANCH  19  20
ATOM     20  C   UNL     1      -0.567   4.680  -1.393  0.00  0.00    +0.000 C 
ATOM     21  O   UNL     1      -0.758   5.332  -0.394  0.00  0.00    +0.000 OA
ATOM     22  C   UNL     1      -1.289   5.029  -2.669  0.00  0.00    +0.000 C 
ENDBRANCH  19  20
ENDBRANCH   3  19
TORSDOF 6
ENDMDL
MODEL      334
REMARK  Name = ZINC16697325
REMARK  9 active torsions:
REMARK  status: ('A' for Active; 'I' for Inactive)
REMARK    1  A    between atoms: C_1  and  C_2
REMARK    2  A    between atoms: C_2  and  C_3
REMARK    3  A    between atoms: C_2  and  C_4
REMARK    4  A    between atoms: C_2  and  O_5
REMARK    5  A    between atoms: O_5  and  C_6
REMARK    6  A    between atoms: C_12  and  C_14
REMARK    7  A    between atoms: C_14  and  CA_15
REMARK    8  A    between atoms: CA_15  and  C_16
REMARK    9  A    between atoms: CA_15  and  N_19
REMARK                            x       y       z     vdW  Elec       q    Type
REMARK                         _______ _______ _______ _____ _____    ______ ____
ROOT
ATOM      1  C   UNL     1      -3.963   1.901   2.645  0.00  0.00    +0.000 C 
ATOM      2  O   UNL     1      -4.558   2.109   1.606  0.00  0.00    +0.000 OA
ATOM      3  N   UNL     1      -2.744   1.326   2.620  0.00  0.00    +0.000 N 
ATOM      4  C   UNL     1      -2.012   1.069   3.867  0.00  0.00    +0.000 C 
ATOM      5  C   UNL     1      -0.620   1.700   3.762  0.00  0.00    +0.000 C 
ATOM      6  C   UNL     1       0.078   1.179   2.504  0.00  0.00    +0.000 C 
ATOM      7  C   UNL     1      -0.729   1.579   1.267  0.00  0.00    +0.000 C 
ATOM      8  C   UNL     1      -2.122   0.946   1.344  0.00  0.00    +0.000 C 
ENDROOT
BRANCH   1   9
ATOM      9  O   UNL     1      -4.521   2.245   3.821  0.00  0.00    +0.000 OA
BRANCH   9  11
ATOM     10  C   UNL     1      -6.825   1.895   3.114  0.00  0.00    +0.000 C 
ATOM     11  C   UNL     1      -5.835   2.859   3.772  0.00  0.00    +0.000 C 
ATOM     12  C   UNL     1      -6.303   3.177   5.194  0.00  0.00    +0.000 C 
ATOM     13  C   UNL     1      -5.764   4.152   2.958  0.00  0.00    +0.000 C 
ENDBRANCH   9  11
ENDBRANCH   1   9
BRANCH   7  14
ATOM     14  C   UNL     1      -0.013   1.086   0.008  0.00  0.00    +0.000 C 
BRANCH  14  15
ATOM     15  CA  UNL     1      -0.753   1.593  -1.232  0.00  0.00    +0.000 C 
BRANCH  15  16
ATOM     16  N   UNL     1      -0.680   3.064  -1.264  0.00  0.00    +0.000 N 
ATOM     17  H1  UNL     1       0.304   3.363  -1.307  0.00  0.00    +0.000 HD
ATOM     18  H2  UNL     1      -1.122   3.453  -0.419  0.00  0.00    +0.000 HD
ATOM     19  H3  UNL     1      -1.177   3.411  -2.097  0.00  0.00    +0.000 HD
ENDBRANCH  15  16
BRANCH  15  20
ATOM     20  C   UNL     1      -0.121   1.007  -2.468  0.00  0.00    +0.000 C 
ATOM     21  O   UNL     1       0.653   1.666  -3.121  0.00  0.00    +0.000 OA
ATOM     22  OXT UNL     1      -0.419  -0.247  -2.844  0.00  0.00    +0.000 OA
ENDBRANCH  15  20
ENDBRANCH  14  15
ENDBRANCH   7  14
TORSDOF 6
ENDMDL
MODEL      335
REMARK  Name = ZINC20273639
REMARK  7 active torsions:
REMARK  status: ('A' for Active; 'I' for Inactive)
REMARK    1  A    between atoms: C_1  and  C_2
REMARK    2  A    between atoms: C_5  and  C_7
REMARK    3  A    between atoms: C_7  and  C_8
REMARK    4  A    between atoms: C_10  and  C_13
REMARK    5  A    between atoms: C_13  and  CA_14
REMARK    6  A    between atoms: CA_14  and  C_15
REMARK    7  A    between atoms: CA_14  and  N_18
REMARK                            x       y       z     vdW  Elec       q    Type
REMARK                         _______ _______ _______ _____ _____    ______ ____
ROOT
ATOM      1  C   UNL     1       0.355   3.984   4.841  0.00  0.00    +0.000 A 
ATOM      2  N   UNL     1      -0.346   5.030   5.214  0.00  0.00    +0.000 NA
ATOM      3  C   UNL     1       0.167   6.242   5.195  0.00  0.00    +0.000 A 
ATOM      4  C   UNL     1       1.449   6.394   4.777  0.00  0.00    +0.000 A 
ATOM      5  S   UNL     1       1.881   4.697   4.420  0.00  0.00    +0.000 S 
ENDROOT
BRANCH   1   6
ATOM      6  C   UNL     1      -0.058   2.535   4.796  0.00  0.00    +0.000 C 
BRANCH   6  11
ATOM      7  C   UNL     1      -0.013   1.086   0.008  0.00  0.00    +0.000 C 
ATOM      8  C   UNL     1      -0.718   1.572   1.248  0.00  0.00    +0.000 A 
ATOM      9  C   UNL     1      -2.058   1.790   1.245  0.00  0.00    +0.000 A 
ATOM     10  S   UNL     1      -2.306   2.332   2.930  0.00  0.00    +0.000 S 
ATOM     11  C   UNL     1      -0.651   2.224   3.446  0.00  0.00    +0.000 A 
ATOM     12  N   UNL     1      -0.049   1.800   2.359  0.00  0.00    +0.000 NA
ENDBRANCH   6  11
ENDBRANCH   1   6
BRANCH   3  13
ATOM     13  C   UNL     1      -0.650   7.433   5.627  0.00  0.00    +0.000 C 
BRANCH  13  14
ATOM     14  CA  UNL     1      -1.948   7.481   4.818  0.00  0.00    +0.000 C 
BRANCH  14  15
ATOM     15  N   UNL     1      -1.635   7.718   3.403  0.00  0.00    +0.000 N 
ATOM     16  H1  UNL     1      -1.039   6.955   3.050  0.00  0.00    +0.000 HD
ATOM     17  H2  UNL     1      -1.137   8.614   3.306  0.00  0.00    +0.000 HD
ATOM     18  H3  UNL     1      -2.508   7.750   2.858  0.00  0.00    +0.000 HD
ENDBRANCH  14  15
BRANCH  14  19
ATOM     19  C   UNL     1      -2.820   8.597   5.333  0.00  0.00    +0.000 C 
ATOM     20  O   UNL     1      -2.856   9.654   4.749  0.00  0.00    +0.000 OA
ATOM     21  OXT UNL     1      -3.556   8.417   6.441  0.00  0.00    +0.000 OA
ENDBRANCH  14  19
ENDBRANCH  13  14
ENDBRANCH   3  13
TORSDOF 6
ENDMDL
MODEL      336
REMARK  Name = ZINC16698039
REMARK  6 active torsions:
REMARK  status: ('A' for Active; 'I' for Inactive)
REMARK    1  A    between atoms: C_7  and  C_10
REMARK    2  A    between atoms: C_10  and  C_12
REMARK    3  A    between atoms: C_12  and  C_13
REMARK    4  A    between atoms: C_12  and  N_18
REMARK    5  A    between atoms: C_13  and  C_14
REMARK    6  A    between atoms: C_14  and  C_15
REMARK                            x       y       z     vdW  Elec       q    Type
REMARK                         _______ _______ _______ _____ _____    ______ ____
ROOT
ATOM      1  C   UNL     1      -0.621   1.658   3.743  0.00  0.00    +0.000 C 
ATOM      2  O   UNL     1      -1.327   0.968   4.449  0.00  0.00    +0.000 OA
ENDROOT
BRANCH   1   9
ATOM      3  C   UNL     1      -2.082   4.326   7.264  0.00  0.00    +0.000 A 
ATOM      4  C   UNL     1      -1.585   5.618   7.172  0.00  0.00    +0.000 A 
ATOM      5  C   UNL     1      -0.762   5.981   6.128  0.00  0.00    +0.000 A 
ATOM      6  C   UNL     1      -0.423   5.047   5.154  0.00  0.00    +0.000 A 
ATOM      7  C   UNL     1      -0.928   3.741   5.249  0.00  0.00    +0.000 A 
ATOM      8  C   UNL     1      -1.758   3.387   6.309  0.00  0.00    +0.000 A 
ATOM      9  C   UNL     1      -0.390   3.015   4.082  0.00  0.00    +0.000 A 
ATOM     10  C   UNL     1       0.387   3.920   3.391  0.00  0.00    +0.000 A 
ATOM     11  N   UNL     1       0.360   5.111   4.019  0.00  0.00    +0.000 N 
ATOM     12  H   UNL     1       0.856   5.955   3.697  0.00  0.00    +0.000 HD
ENDBRANCH   1   9
BRANCH   1  13
ATOM     13  C   UNL     1       0.011   1.072   2.506  0.00  0.00    +0.000 C 
BRANCH  13  14
ATOM     14  N   UNL     1      -0.060  -0.397   2.583  0.00  0.00    +0.000 N 
ATOM     15  H   UNL     1      -1.044  -0.696   2.639  0.00  0.00    +0.000 HD
ATOM     16  H   UNL     1       0.448  -0.728   3.416  0.00  0.00    +0.000 HD
ATOM     17  H   UNL     1       0.371  -0.803   1.740  0.00  0.00    +0.000 HD
ENDBRANCH  13  14
BRANCH  13  18
ATOM     18  C   UNL     1      -0.729   1.579   1.267  0.00  0.00    +0.000 C 
BRANCH  18  19
ATOM     19  C   UNL     1      -0.013   1.086   0.008  0.00  0.00    +0.000 C 
BRANCH  19  20
ATOM     20  C   UNL     1      -0.742   1.585  -1.213  0.00  0.00    +0.000 C 
ATOM     21  O   UNL     1      -1.732   2.266  -1.089  0.00  0.00    +0.000 OA
ATOM     22  O   UNL     1      -0.290   1.274  -2.438  0.00  0.00    +0.000 OA
ENDBRANCH  19  20
ENDBRANCH  18  19
ENDBRANCH  13  18
ENDBRANCH   1  13
TORSDOF 6
ENDMDL
MODEL      337
REMARK  Name = ZINC20190413
REMARK  6 active torsions:
REMARK  status: ('A' for Active; 'I' for Inactive)
REMARK    1  A    between atoms: C_4  and  N_7
REMARK    2  A    between atoms: N_7  and  S_8
REMARK    3  A    between atoms: S_8  and  C_11
REMARK    4  A    between atoms: C_13  and  C_18
REMARK    5  A    between atoms: C_18  and  C_19
REMARK    6  A    between atoms: C_19  and  N_20
REMARK                            x       y       z     vdW  Elec       q    Type
REMARK                         _______ _______ _______ _____ _____    ______ ____
ROOT
ATOM      1  C   UNL     1       0.189   1.569   0.069  0.00  0.00    +0.000 A 
ATOM      2  C   UNL     1       0.366   0.203  -0.038  0.00  0.00    +0.000 A 
ATOM      3  C   UNL     1       1.640  -0.333  -0.015  0.00  0.00    +0.000 A 
ATOM      4  C   UNL     1       2.738   0.498   0.115  0.00  0.00    +0.000 A 
ATOM      5  C   UNL     1       2.563   1.864   0.223  0.00  0.00    +0.000 A 
ATOM      6  C   UNL     1       1.287   2.402   0.200  0.00  0.00    +0.000 A 
ATOM      7  F   UNL     1       1.114   3.738   0.304  0.00  0.00    +0.000 F 
ENDROOT
BRANCH   1   8
ATOM      8  S   UNL     1      -1.435   2.252   0.032  0.00  0.00    +0.000 S 
ATOM      9  O   UNL     1      -1.408   3.314  -0.911  0.00  0.00    +0.000 OA
ATOM     10  O   UNL     1      -2.334   1.157  -0.079  0.00  0.00    +0.000 OA
BRANCH   8  11
ATOM     11  N   UNL     1      -1.710   2.942   1.513  0.00  0.00    +0.000 NA
BRANCH  11  15
ATOM     12  C   UNL     1      -1.739   0.633   4.854  0.00  0.00    +0.000 A 
ATOM     13  C   UNL     1      -1.651   2.013   4.947  0.00  0.00    +0.000 A 
ATOM     14  N   UNL     1      -1.644   2.736   3.840  0.00  0.00    +0.000 NA
ATOM     15  C   UNL     1      -1.720   2.155   2.651  0.00  0.00    +0.000 A 
ATOM     16  N   UNL     1      -1.811   0.839   2.527  0.00  0.00    +0.000 NA
ATOM     17  C   UNL     1      -1.817   0.058   3.595  0.00  0.00    +0.000 A 
ENDBRANCH  11  15
ENDBRANCH   8  11
ENDBRANCH   1   8
BRANCH   3  18
ATOM     18  C   UNL     1       1.833  -1.823  -0.133  0.00  0.00    +0.000 C 
BRANCH  18  19
ATOM     19  C   UNL     1       1.976  -2.204  -1.608  0.00  0.00    +0.000 C 
BRANCH  19  20
ATOM     20  N   UNL     1       2.163  -3.656  -1.722  0.00  0.00    +0.000 N 
ATOM     21  H   UNL     1       1.349  -4.142  -1.320  0.00  0.00    +0.000 HD
ATOM     22  H   UNL     1       3.014  -3.935  -1.212  0.00  0.00    +0.000 HD
ATOM     23  H   UNL     1       2.259  -3.914  -2.715  0.00  0.00    +0.000 HD
ENDBRANCH  19  20
ENDBRANCH  18  19
ENDBRANCH   3  18
TORSDOF 6
ENDMDL
MODEL      338
REMARK  Name = ZINC19733061
REMARK  6 active torsions:
REMARK  status: ('A' for Active; 'I' for Inactive)
REMARK    1  A    between atoms: C_4  and  N_16
REMARK    2  A    between atoms: C_5  and  C_7
REMARK    3  A    between atoms: C_7  and  C_8
REMARK    4  A    between atoms: C_11  and  C_13
REMARK    5  A    between atoms: C_13  and  C_14
REMARK    6  A    between atoms: C_14  and  N_15
REMARK                            x       y       z     vdW  Elec       q    Type
REMARK                         _______ _______ _______ _____ _____    ______ ____
ROOT
ATOM      1  C   UNL     1       1.990   0.744   0.016  0.00  0.00    +0.000 A 
ATOM      2  N   UNL     1       1.163   1.750   0.039  0.00  0.00    +0.000 NA
ATOM      3  N   UNL     1      -0.045   1.309   0.062  0.00  0.00    +0.000 NA
ATOM      4  C   UNL     1      -0.030   0.006   0.054  0.00  0.00    +0.000 A 
ATOM      5  O   UNL     1       1.256  -0.381   0.024  0.00  0.00    +0.000 OA
ENDROOT
BRANCH   1   6
ATOM      6  C   UNL     1       3.495   0.827  -0.016  0.00  0.00    +0.000 C 
BRANCH   6  11
ATOM      7  C   UNL     1       4.879   2.061   3.272  0.00  0.00    +0.000 A 
ATOM      8  C   UNL     1       5.002   0.880   3.981  0.00  0.00    +0.000 A 
ATOM      9  C   UNL     1       4.636  -0.318   3.396  0.00  0.00    +0.000 A 
ATOM     10  C   UNL     1       4.145  -0.335   2.103  0.00  0.00    +0.000 A 
ATOM     11  C   UNL     1       4.027   0.846   1.394  0.00  0.00    +0.000 A 
ATOM     12  C   UNL     1       4.391   2.044   1.980  0.00  0.00    +0.000 A 
BRANCH  10  13
ATOM     13  N   UNL     1       3.749  -1.617   1.479  0.00  0.00    +0.000 N 
ATOM     14  O   UNL     1       3.756  -2.642   2.136  0.00  0.00    +0.000 OA
ATOM     15  O   UNL     1       3.415  -1.646   0.307  0.00  0.00    +0.000 OA
ENDBRANCH  10  13
ENDBRANCH   6  11
ENDBRANCH   1   6
BRANCH   4  16
ATOM     16  C   UNL     1      -1.234  -0.899   0.073  0.00  0.00    +0.000 C 
BRANCH  16  17
ATOM     17  C   UNL     1      -1.672  -1.197  -1.363  0.00  0.00    +0.000 C 
BRANCH  17  18
ATOM     18  N   UNL     1      -2.846  -2.080  -1.344  0.00  0.00    +0.000 N 
ATOM     19  H   UNL     1      -3.616  -1.618  -0.839  0.00  0.00    +0.000 HD
ATOM     20  H   UNL     1      -2.605  -2.962  -0.869  0.00  0.00    +0.000 HD
ATOM     21  H   UNL     1      -3.141  -2.280  -2.310  0.00  0.00    +0.000 HD
ENDBRANCH  17  18
ENDBRANCH  16  17
ENDBRANCH   4  16
TORSDOF 6
ENDMDL
MODEL      339
REMARK  Name = ZINC01533164
REMARK  7 active torsions:
REMARK  status: ('A' for Active; 'I' for Inactive)
REMARK    1  A    between atoms: C_1  and  N_14
REMARK    2  A    between atoms: C_2  and  C_3
REMARK    3  A    between atoms: C_2  and  N_14
REMARK    4  A    between atoms: C_3  and  C_4
REMARK    5  A    between atoms: C_7  and  O_11
REMARK    6  A    between atoms: C_8  and  O_10
REMARK    7  A    between atoms: O_11  and  P_12
REMARK                            x       y       z     vdW  Elec       q    Type
REMARK                         _______ _______ _______ _____ _____    ______ ____
ROOT
ATOM      1  C   UNL     1       0.556   2.533  -4.846  0.00  0.00    +0.000 A 
ATOM      2  C   UNL     1       1.262   3.404  -4.037  0.00  0.00    +0.000 A 
ATOM      3  C   UNL     1       1.828   2.953  -2.859  0.00  0.00    +0.000 A 
ATOM      4  C   UNL     1       1.688   1.626  -2.486  0.00  0.00    +0.000 A 
ATOM      5  C   UNL     1       0.981   0.748  -3.303  0.00  0.00    +0.000 A 
ATOM      6  C   UNL     1       0.412   1.208  -4.480  0.00  0.00    +0.000 A 
ENDROOT
BRANCH   5   7
ATOM      7  O   UNL     1       0.845  -0.557  -2.945  0.00  0.00    +0.000 OA
ATOM      8  H   UNL     1       0.429  -0.532  -2.046  0.00  0.00    +0.000 HD
ENDBRANCH   5   7
BRANCH   1   9
ATOM      9  C   UNL     1      -0.059   3.030  -6.128  0.00  0.00    +0.000 C 
BRANCH   9  10
ATOM     10  C   UNL     1       0.946   2.872  -7.271  0.00  0.00    +0.000 C 
BRANCH  10  12
ATOM     11  C   UNL     1       1.285   3.219  -9.643  0.00  0.00    +0.000 C 
ATOM     12  N   UNL     1       0.337   3.360  -8.522  0.00  0.00    +0.000 N 
ATOM     13  H   UNL     1       0.083   4.352  -8.413  0.00  0.00    +0.000 HD
ATOM     14  H   UNL     1      -0.514   2.814  -8.723  0.00  0.00    +0.000 HD
ENDBRANCH  10  12
ENDBRANCH   9  10
ENDBRANCH   1   9
BRANCH   4  15
ATOM     15  O   UNL     1       2.243   1.181  -1.328  0.00  0.00    +0.000 OA
BRANCH  15  16
ATOM     16  P   UNL     1       1.451   1.638  -0.003  0.00  0.00    +0.000 P 
ATOM     17  O   UNL     1       1.314   3.111   0.006  0.00  0.00    +0.000 OA
ATOM     18  O   UNL     1      -0.011   0.963   0.007  0.00  0.00    +0.000 OA
ATOM     19  O   UNL     1       2.268   1.166   1.301  0.00  0.00    +0.000 OA
ENDBRANCH  15  16
ENDBRANCH   4  15
TORSDOF 6
ENDMDL
MODEL      340
REMARK  Name = ZINC22863981
REMARK  7 active torsions:
REMARK  status: ('A' for Active; 'I' for Inactive)
REMARK    1  A    between atoms: C_1  and  C_2
REMARK    2  A    between atoms: C_2  and  C_3
REMARK    3  A    between atoms: C_3  and  C_16
REMARK    4  A    between atoms: N_8  and  C_11
REMARK    5  A    between atoms: C_11  and  N_18
REMARK    6  A    between atoms: C_16  and  C_17
REMARK    7  A    between atoms: N_18  and  N_19
REMARK                            x       y       z     vdW  Elec       q    Type
REMARK                         _______ _______ _______ _____ _____    ______ ____
ROOT
ATOM      1  C   UNL     1      -4.497   1.029  -0.352  0.00  0.00    +0.000 C 
ATOM      2  C   UNL     1      -4.702  -0.273  -1.103  0.00  0.00    +0.000 C 
ATOM      3  O   UNL     1      -5.784  -0.823  -1.131  0.00  0.00    +0.000 OA
ATOM      4  C   UNL     1      -3.585  -0.818  -1.768  0.00  0.00    +0.000 C 
ATOM      5  C   UNL     1      -2.391  -0.201  -1.738  0.00  0.00    +0.000 C 
ATOM      6  N   UNL     1      -2.147   0.963  -1.077  0.00  0.00    +0.000 N 
ATOM      7  C   UNL     1      -3.102   1.620  -0.391  0.00  0.00    +0.000 C 
ATOM      8  O   UNL     1      -2.851   2.659   0.183  0.00  0.00    +0.000 OA
ENDROOT
BRANCH   1  10
ATOM      9  C   UNL     1      -3.872  -0.172   1.748  0.00  0.00    +0.000 C 
ATOM     10  C   UNL     1      -4.873   0.796   1.112  0.00  0.00    +0.000 C 
ENDBRANCH   1  10
BRANCH   1  11
ATOM     11  C   UNL     1      -5.466   2.064  -0.927  0.00  0.00    +0.000 C 
ATOM     12  C   UNL     1      -5.069   2.389  -2.369  0.00  0.00    +0.000 C 
ENDBRANCH   1  11
BRANCH   6  13
ATOM     13  C   UNL     1      -0.795   1.527  -1.120  0.00  0.00    +0.000 C 
BRANCH  13  14
ATOM     14  N   UNL     1      -0.015   0.998   0.015  0.00  0.00    +0.000 NA
ATOM     15  H   UNL     1      -0.472   1.270   0.897  0.00  0.00    +0.000 HD
BRANCH  14  20
ATOM     16  C   UNL     1       1.561   2.386  -1.186  0.00  0.00    +0.000 C 
ATOM     17  C   UNL     1       3.013   2.869  -1.201  0.00  0.00    +0.000 C 
ATOM     18  C   UNL     1       3.068   2.775   1.217  0.00  0.00    +0.000 C 
ATOM     19  C   UNL     1       1.616   2.292   1.232  0.00  0.00    +0.000 C 
ATOM     20  N   UNL     1       1.358   1.522  -0.002  0.00  0.00    +0.000 NA
ATOM     21  N   UNL     1       3.293   3.626   0.033  0.00  0.00    +0.000 N 
ATOM     22  H   UNL     1       4.273   3.945   0.024  0.00  0.00    +0.000 HD
ATOM     23  H   UNL     1       2.672   4.446   0.080  0.00  0.00    +0.000 HD
ENDBRANCH  14  20
ENDBRANCH  13  14
ENDBRANCH   6  13
TORSDOF 5
ENDMDL
MODEL      341
REMARK  Name = ZINC01606538
REMARK  11 active torsions:
REMARK  status: ('A' for Active; 'I' for Inactive)
REMARK    1  A    between atoms: C_1  and  C_2
REMARK    2  A    between atoms: C_3  and  O_20
REMARK    3  A    between atoms: C_4  and  C_10
REMARK    4  A    between atoms: C_5  and  C_8
REMARK    5  A    between atoms: C_8  and  O_9
REMARK    6  A    between atoms: N_11  and  N_12
REMARK    7  A    between atoms: C_13  and  C_15
REMARK    8  A    between atoms: C_15  and  N_16
REMARK    9  A    between atoms: N_16  and  C_17
REMARK   10  A    between atoms: N_16  and  C_18
REMARK   11  A    between atoms: N_16  and  C_19
REMARK                            x       y       z     vdW  Elec       q    Type
REMARK                         _______ _______ _______ _____ _____    ______ ____
ROOT
ATOM      1  C   UNL     1       2.692   3.797  -0.249  0.00  0.00    +0.000 C 
ATOM      2  C   UNL     1       2.964   3.684  -1.727  0.00  0.00    +0.000 A 
ATOM      3  C   UNL     1       2.075   2.995  -2.535  0.00  0.00    +0.000 A 
ATOM      4  C   UNL     1       2.340   2.905  -3.912  0.00  0.00    +0.000 A 
ATOM      5  C   UNL     1       3.501   3.516  -4.402  0.00  0.00    +0.000 A 
ATOM      6  C   UNL     1       4.332   4.177  -3.521  0.00  0.00    +0.000 A 
ATOM      7  N   UNL     1       4.047   4.239  -2.234  0.00  0.00    +0.000 NA
ENDROOT
BRANCH   4   8
ATOM      8  C   UNL     1       1.423   2.187  -4.816  0.00  0.00    +0.000 C 
ATOM      9  N   UNL     1       0.352   1.627  -4.342  0.00  0.00    +0.000 NA
BRANCH   9  10
ATOM     10  N   UNL     1      -0.520   0.945  -5.201  0.00  0.00    +0.000 N 
ATOM     11  C   UNL     1      -1.632   0.363  -4.709  0.00  0.00    +0.000 C 
ATOM     12  O   UNL     1      -1.878   0.430  -3.523  0.00  0.00    +0.000 OA
ATOM     13  H   UNL     1      -0.311   0.887  -6.208  0.00  0.00    +0.000 HD
BRANCH  11  14
ATOM     14  C   UNL     1      -2.570  -0.371  -5.633  0.00  0.00    +0.000 C 
BRANCH  14  15
ATOM     15  N   UNL     1      -3.733  -0.847  -4.873  0.00  0.00    +0.000 N 
ATOM     16  C   UNL     1      -4.402   0.296  -4.236  0.00  0.00    +0.000 C 
ATOM     17  C   UNL     1      -4.671  -1.518  -5.782  0.00  0.00    +0.000 C 
ATOM     18  C   UNL     1      -3.290  -1.793  -3.840  0.00  0.00    +0.000 C 
ENDBRANCH  14  15
ENDBRANCH  11  14
ENDBRANCH   9  10
ENDBRANCH   4   8
BRANCH   3  19
ATOM     19  O   UNL     1       0.963   2.421  -2.007  0.00  0.00    +0.000 OA
ATOM     20  H   UNL     1       0.490   3.163  -1.551  0.00  0.00    +0.000 HD
ENDBRANCH   3  19
BRANCH   5  21
ATOM     21  C   UNL     1       3.838   3.453  -5.869  0.00  0.00    +0.000 C 
BRANCH  21  22
ATOM     22  O   UNL     1       5.064   4.149  -6.107  0.00  0.00    +0.000 OA
ATOM     23  H   UNL     1       5.791   3.727  -5.583  0.00  0.00    +0.000 HD
ENDBRANCH  21  22
ENDBRANCH   5  21
TORSDOF 7
ENDMDL
MODEL      342
REMARK  Name = ZINC20183169
REMARK  8 active torsions:
REMARK  status: ('A' for Active; 'I' for Inactive)
REMARK    1  A    between atoms: C_1  and  C_2
REMARK    2  A    between atoms: C_2  and  N_3
REMARK    3  A    between atoms: N_3  and  C_4
REMARK    4  A    between atoms: N_3  and  S_7
REMARK    5  A    between atoms: C_4  and  C_5
REMARK    6  A    between atoms: C_5  and  N_6
REMARK    7  A    between atoms: S_7  and  C_10
REMARK    8  A    between atoms: N_19  and  C_20
REMARK                            x       y       z     vdW  Elec       q    Type
REMARK                         _______ _______ _______ _____ _____    ______ ____
ROOT
ATOM      1  S   UNL     1      -1.252   7.471   0.052  0.00  0.00    +0.000 S 
ATOM      2  O   UNL     1      -0.306   8.374  -0.503  0.00  0.00    +0.000 OA
ATOM      3  O   UNL     1      -2.557   7.306  -0.487  0.00  0.00    +0.000 OA
ENDROOT
BRANCH   1   4
ATOM      4  C   UNL     1      -0.497   5.879   0.038  0.00  0.00    +0.000 A 
ATOM      5  C   UNL     1       0.881   5.765   0.024  0.00  0.00    +0.000 A 
ATOM      6  C   UNL     1       1.478   4.522   0.012  0.00  0.00    +0.000 A 
ATOM      7  C   UNL     1       0.695   3.369   0.013  0.00  0.00    +0.000 A 
ATOM      8  C   UNL     1      -0.688   3.497   0.027  0.00  0.00    +0.000 A 
ATOM      9  C   UNL     1      -1.282   4.739   0.039  0.00  0.00    +0.000 A 
ATOM     10  C   UNL     1      -1.244   2.091   0.019  0.00  0.00    +0.000 C 
ATOM     11  C   UNL     1      -0.014   1.209   0.009  0.00  0.00    +0.000 C 
ATOM     12  O   UNL     1       0.002  -0.004   0.002  0.00  0.00    +0.000 OA
ATOM     13  N   UNL     1       1.056   2.022   0.003  0.00  0.00    +0.000 N 
ATOM     14  C   UNL     1       2.442   1.547  -0.013  0.00  0.00    +0.000 C 
ENDBRANCH   1   4
BRANCH   1  15
ATOM     15  N   UNL     1      -1.448   7.905   1.638  0.00  0.00    +0.000 NA
BRANCH  15  17
ATOM     16  C   UNL     1      -2.473   6.245   3.112  0.00  0.00    +0.000 C 
ATOM     17  C   UNL     1      -2.680   7.554   2.348  0.00  0.00    +0.000 C 
ENDBRANCH  15  17
BRANCH  15  18
ATOM     18  C   UNL     1      -0.388   8.642   2.332  0.00  0.00    +0.000 C 
BRANCH  18  19
ATOM     19  C   UNL     1      -0.681  10.142   2.265  0.00  0.00    +0.000 C 
BRANCH  19  20
ATOM     20  N   UNL     1       0.382  10.880   2.960  0.00  0.00    +0.000 N 
ATOM     21  H   UNL     1       1.288  10.687   2.508  0.00  0.00    +0.000 HD
ATOM     22  H   UNL     1       0.420  10.582   3.945  0.00  0.00    +0.000 HD
ATOM     23  H   UNL     1       0.185  11.890   2.915  0.00  0.00    +0.000 HD
ENDBRANCH  19  20
ENDBRANCH  18  19
ENDBRANCH  15  18
ENDBRANCH   1  15
TORSDOF 6
ENDMDL
MODEL      343
REMARK  Name = ZINC31938015
REMARK  6 active torsions:
REMARK  status: ('A' for Active; 'I' for Inactive)
REMARK    1  A    between atoms: C_1  and  C_2
REMARK    2  A    between atoms: C_2  and  O_3
REMARK    3  A    between atoms: O_3  and  C_4
REMARK    4  A    between atoms: C_4  and  O_6
REMARK    5  A    between atoms: O_6  and  C_7
REMARK    6  A    between atoms: N_11  and  N_12
REMARK                            x       y       z     vdW  Elec       q    Type
REMARK                         _______ _______ _______ _____ _____    ______ ____
ROOT
ATOM      1  C   UNL     1      -0.213   1.218  -4.752  0.00  0.00    +0.000 C 
ATOM      2  C   UNL     1      -0.474   2.276  -5.854  0.00  0.00    +0.000 C 
ATOM      3  C   UNL     1      -0.363   1.437  -7.151  0.00  0.00    +0.000 C 
ATOM      4  C   UNL     1      -0.996   0.103  -6.795  0.00  0.00    +0.000 C 
ATOM      5  N   UNL     1      -1.517  -0.743  -7.622  0.00  0.00    +0.000 NA
ATOM      6  C   UNL     1      -0.905  -0.051  -5.291  0.00  0.00    +0.000 C 
ENDROOT
BRANCH   5   7
ATOM      7  N   UNL     1      -1.530  -0.464  -8.995  0.00  0.00    +0.000 N 
ATOM      8  C   UNL     1      -2.060  -1.325  -9.836  0.00  0.00    +0.000 C 
ATOM      9  N   UNL     1      -2.599  -2.497  -9.370  0.00  0.00    +0.000 N 
ATOM     10  N   UNL     1      -2.073  -1.051 -11.181  0.00  0.00    +0.000 N 
ATOM     11  H   UNL     1      -1.126   0.416  -9.345  0.00  0.00    +0.000 HD
ATOM     12  H   UNL     1      -2.590  -2.703  -8.361  0.00  0.00    +0.000 HD
ATOM     13  H   UNL     1      -3.014  -3.171 -10.029  0.00  0.00    +0.000 HD
ATOM     14  H   UNL     1      -1.669  -0.171 -11.531  0.00  0.00    +0.000 HD
ATOM     15  H   UNL     1      -2.488  -1.725 -11.840  0.00  0.00    +0.000 HD
ENDBRANCH   5   7
BRANCH   1  16
ATOM     16  O   UNL     1      -0.813   1.631  -3.495  0.00  0.00    +0.000 OA
BRANCH  16  17
ATOM     17  C   UNL     1      -0.210   1.219  -2.366  0.00  0.00    +0.000 C 
ATOM     18  O   UNL     1       0.789   0.532  -2.427  0.00  0.00    +0.000 OA
BRANCH  17  19
ATOM     19  O   UNL     1      -0.715   1.567  -1.168  0.00  0.00    +0.000 OA
BRANCH  19  21
ATOM     20  C   UNL     1      -0.729   1.579   1.267  0.00  0.00    +0.000 C 
ATOM     21  C   UNL     1      -0.013   1.086   0.008  0.00  0.00    +0.000 C 
ENDBRANCH  19  21
ENDBRANCH  17  19
ENDBRANCH  16  17
ENDBRANCH   1  16
TORSDOF 5
ENDMDL
MODEL      344
REMARK  Name = ZINC06514458
REMARK  7 active torsions:
REMARK  status: ('A' for Active; 'I' for Inactive)
REMARK    1  A    between atoms: C_4  and  N_7
REMARK    2  A    between atoms: C_8  and  C_9
REMARK    3  A    between atoms: C_9  and  N_16
REMARK    4  A    between atoms: C_10  and  N_11
REMARK    5  A    between atoms: N_12  and  C_13
REMARK    6  A    between atoms: N_16  and  O_17
REMARK    7  A    between atoms: N_16  and  O_18
REMARK                            x       y       z     vdW  Elec       q    Type
REMARK                         _______ _______ _______ _____ _____    ______ ____
ROOT
ATOM      1  C   UNL     1       0.136  -3.917   0.301  0.00  0.00    +0.000 C 
ATOM      2  C   UNL     1      -0.009  -2.578   0.610  0.00  0.00    +0.000 C 
ENDROOT
BRANCH   2   3
ATOM      3  N   UNL     1       0.916  -1.959   1.343  0.00  0.00    +0.000 NA
ATOM      4  N   UNL     1       0.732  -0.738   1.718  0.00  0.00    +0.000 NA
BRANCH   4   5
ATOM      5  C   UNL     1      -0.452  -0.120   1.464  0.00  0.00    +0.000 C 
ATOM      6  N   UNL     1      -1.563  -0.610   1.952  0.00  0.00    +0.000 NA
ATOM      7  S   UNL     1      -0.491   1.339   0.477  0.00  0.00    +0.000 SA
ATOM      8  H   UNL     1      -1.540  -1.463   2.528  0.00  0.00    +0.000 HD
ENDBRANCH   4   5
ENDBRANCH   2   3
BRANCH   1  10
ATOM      9  N   UNL     1      -0.776  -5.870  -0.755  0.00  0.00    +0.000 NA
ATOM     10  C   UNL     1      -0.952  -4.638  -0.365  0.00  0.00    +0.000 C 
BRANCH   9  14
ATOM     11  C   UNL     1      -3.845  -7.903  -2.635  0.00  0.00    +0.000 A 
ATOM     12  C   UNL     1      -2.560  -7.973  -3.145  0.00  0.00    +0.000 A 
ATOM     13  C   UNL     1      -1.531  -7.298  -2.524  0.00  0.00    +0.000 A 
ATOM     14  C   UNL     1      -1.788  -6.541  -1.375  0.00  0.00    +0.000 A 
ATOM     15  C   UNL     1      -3.089  -6.481  -0.864  0.00  0.00    +0.000 A 
ATOM     16  C   UNL     1      -4.108  -7.157  -1.500  0.00  0.00    +0.000 A 
ENDBRANCH   9  14
ENDBRANCH   1  10
BRANCH   1  17
ATOM     17  N   UNL     1       1.306  -4.576   0.620  0.00  0.00    +0.000 N 
BRANCH  17  18
ATOM     18  O   UNL     1       2.495  -3.840   0.842  0.00  0.00    +0.000 OA
ATOM     19  H   UNL     1       2.269  -3.199   1.562  0.00  0.00    +0.000 HD
ENDBRANCH  17  18
BRANCH  17  20
ATOM     20  O   UNL     1       1.316  -5.987   0.727  0.00  0.00    +0.000 OA
ATOM     21  H   UNL     1       0.982  -6.313  -0.146  0.00  0.00    +0.000 HD
ENDBRANCH  17  20
ENDBRANCH   1  17
TORSDOF 7
ENDMDL
MODEL      345
REMARK  Name = ZINC20203469
REMARK  6 active torsions:
REMARK  status: ('A' for Active; 'I' for Inactive)
REMARK    1  A    between atoms: C_1  and  S_2
REMARK    2  A    between atoms: S_2  and  N_5
REMARK    3  A    between atoms: N_5  and  C_6
REMARK    4  A    between atoms: C_6  and  C_7
REMARK    5  A    between atoms: C_7  and  N_8
REMARK    6  A    between atoms: N_8  and  C_9
REMARK                            x       y       z     vdW  Elec       q    Type
REMARK                         _______ _______ _______ _____ _____    ______ ____
ROOT
ATOM      1  N   UNL     1      -0.012   1.005   0.008  0.00  0.00    +0.000 N 
ATOM      2  H   UNL     1      -0.475   1.262   0.891  0.00  0.00    +0.000 HD
ATOM      3  H   UNL     1       0.033  -0.022  -0.057  0.00  0.00    +0.000 HD
ENDROOT
BRANCH   1   4
ATOM      4  C   UNL     1      -0.795   1.527  -1.120  0.00  0.00    +0.000 C 
ATOM      5  C   UNL     1      -1.402   2.878  -0.736  0.00  0.00    +0.000 C 
ATOM      6  C   UNL     1      -2.216   3.424  -1.912  0.00  0.00    +0.000 C 
ATOM      7  C   UNL     1      -3.332   2.438  -2.259  0.00  0.00    +0.000 C 
ATOM      8  C   UNL     1      -2.730   1.084  -2.638  0.00  0.00    +0.000 C 
ATOM      9  C   UNL     1      -1.915   0.542  -1.461  0.00  0.00    +0.000 C 
ATOM     10  O   UNL     1      -4.196   2.275  -1.122  0.00  0.00    +0.000 OA
ATOM     11  C   UNL     1      -5.285   3.202  -1.350  0.00  0.00    +0.000 C 
ATOM     12  C   UNL     1      -5.454   3.118  -2.887  0.00  0.00    +0.000 C 
ATOM     13  O   UNL     1      -4.101   2.947  -3.356  0.00  0.00    +0.000 OA
ENDBRANCH   1   4
BRANCH   1  14
ATOM     14  C   UNL     1       1.353   1.550  -0.003  0.00  0.00    +0.000 C 
BRANCH  14  15
ATOM     15  C   UNL     1       2.136   0.985   1.184  0.00  0.00    +0.000 C 
BRANCH  15  16
ATOM     16  N   UNL     1       3.497   1.528   1.173  0.00  0.00    +0.000 NA
ATOM     17  H   UNL     1       3.860   1.993   0.329  0.00  0.00    +0.000 HD
BRANCH  16  19
ATOM     18  C   UNL     1       4.725  -0.386   2.724  0.00  0.00    +0.000 C 
ATOM     19  S   UNL     1       4.451   1.395   2.520  0.00  0.00    +0.000 S 
ATOM     20  O   UNL     1       5.668   2.040   2.167  0.00  0.00    +0.000 OA
ATOM     21  O   UNL     1       3.650   1.893   3.583  0.00  0.00    +0.000 OA
ENDBRANCH  16  19
ENDBRANCH  15  16
ENDBRANCH  14  15
ENDBRANCH   1  14
TORSDOF 5
ENDMDL
MODEL      346
REMARK  Name = ZINC05738890
REMARK  8 active torsions:
REMARK  status: ('A' for Active; 'I' for Inactive)
REMARK    1  A    between atoms: C_1  and  C_2
REMARK    2  A    between atoms: C_2  and  C_3
REMARK    3  A    between atoms: C_3  and  N_4
REMARK    4  A    between atoms: N_9  and  C_10
REMARK    5  A    between atoms: C_10  and  C_11
REMARK    6  A    between atoms: C_11  and  O_12
REMARK    7  A    between atoms: N_13  and  C_20
REMARK    8  A    between atoms: N_16  and  C_19
REMARK                            x       y       z     vdW  Elec       q    Type
REMARK                         _______ _______ _______ _____ _____    ______ ____
ROOT
ATOM      1  N   UNL     1      -0.737   1.587   3.605  0.00  0.00    +0.000 N 
ATOM      2  C   UNL     1       0.009   1.077   4.620  0.00  0.00    +0.000 A 
ATOM      3  C   UNL     1       1.052   0.359   4.052  0.00  0.00    +0.000 A 
ATOM      4  N   UNL     1       0.898   0.456   2.701  0.00  0.00    +0.000 N 
ATOM      5  C   UNL     1      -0.209   1.224   2.464  0.00  0.00    +0.000 A 
ATOM      6  N   UNL     1      -0.698   1.558   1.213  0.00  0.00    +0.000 N 
ATOM      7  N   UNL     1       1.963  -0.266   4.873  0.00  0.00    +0.000 N 
ATOM      8  C   UNL     1       1.850  -0.188   6.211  0.00  0.00    +0.000 A 
ATOM      9  O   UNL     1       2.674  -0.754   6.904  0.00  0.00    +0.000 OA
ATOM     10  N   UNL     1       0.859   0.494   6.808  0.00  0.00    +0.000 N 
ATOM     11  C   UNL     1      -0.078   1.138   6.079  0.00  0.00    +0.000 A 
ATOM     12  O   UNL     1      -0.976   1.755   6.623  0.00  0.00    +0.000 OA
ATOM     13  C   UNL     1       0.793   0.541   8.271  0.00  0.00    +0.000 C 
ATOM     14  C   UNL     1       3.067  -1.026   4.283  0.00  0.00    +0.000 C 
ATOM     15  H   UNL     1       1.506   0.028   1.987  0.00  0.00    +0.000 HD
ATOM     16  H   UNL     1      -1.545   2.139   1.130  0.00  0.00    +0.000 HD
ENDROOT
BRANCH   1  17
ATOM     17  C   UNL     1      -1.937   2.413   3.763  0.00  0.00    +0.000 C 
BRANCH  17  19
ATOM     18  C   UNL     1      -4.425   2.374   3.984  0.00  0.00    +0.000 C 
ATOM     19  C   UNL     1      -3.172   1.512   3.819  0.00  0.00    +0.000 C 
ENDBRANCH  17  19
ENDBRANCH   1  17
BRANCH   6  20
ATOM     20  C   UNL     1      -0.013   1.086   0.008  0.00  0.00    +0.000 C 
BRANCH  20  21
ATOM     21  C   UNL     1      -0.753   1.593  -1.232  0.00  0.00    +0.000 C 
BRANCH  21  22
ATOM     22  O   UNL     1      -0.672   3.018  -1.285  0.00  0.00    +0.000 OA
ATOM     23  H   UNL     1       0.278   3.294  -1.332  0.00  0.00    +0.000 HD
ENDBRANCH  21  22
ENDBRANCH  20  21
ENDBRANCH   6  20
TORSDOF 5
ENDMDL
MODEL      347
REMARK  Name = ZINC31829743
REMARK  8 active torsions:
REMARK  status: ('A' for Active; 'I' for Inactive)
REMARK    1  A    between atoms: C_1  and  C_2
REMARK    2  A    between atoms: C_2  and  N_3
REMARK    3  A    between atoms: N_3  and  C_4
REMARK    4  A    between atoms: N_3  and  C_6
REMARK    5  A    between atoms: C_4  and  C_5
REMARK    6  A    between atoms: C_6  and  C_7
REMARK    7  A    between atoms: C_7  and  N_8
REMARK    8  A    between atoms: N_19  and  O_20
REMARK                            x       y       z     vdW  Elec       q    Type
REMARK                         _______ _______ _______ _____ _____    ______ ____
ROOT
ATOM      1  N   UNL     1      -1.806   2.672  -0.666  0.00  0.00    +0.000 NA
ATOM      2  C   UNL     1      -0.586   2.249  -0.883  0.00  0.00    +0.000 C 
ATOM      3  N   UNL     1      -0.287   0.919  -0.868  0.00  0.00    +0.000 N 
ATOM      4  N   UNL     1       0.731   0.465  -1.519  0.00  0.00    +0.000 N 
ATOM      5  O   UNL     1       1.011  -0.922  -1.499  0.00  0.00    +0.000 OA
ATOM      6  C   UNL     1       1.536   1.301  -2.222  0.00  0.00    +0.000 A 
ATOM      7  C   UNL     1       2.486   0.813  -3.124  0.00  0.00    +0.000 A 
ATOM      8  C   UNL     1       3.281   1.688  -3.811  0.00  0.00    +0.000 A 
ATOM      9  C   UNL     1       3.158   3.057  -3.625  0.00  0.00    +0.000 A 
ATOM     10  C   UNL     1       2.226   3.564  -2.742  0.00  0.00    +0.000 A 
ATOM     11  C   UNL     1       1.411   2.693  -2.039  0.00  0.00    +0.000 A 
ATOM     12  N   UNL     1       0.449   3.141  -1.141  0.00  0.00    +0.000 N 
ATOM     13  H   UNL     1      -0.880   0.270  -0.332  0.00  0.00    +0.000 HD
ENDROOT
BRANCH  12  14
ATOM     14  O   UNL     1       0.519   4.417  -0.532  0.00  0.00    +0.000 OA
ATOM     15  H   UNL     1       0.487   4.221   0.438  0.00  0.00    +0.000 HD
ENDBRANCH  12  14
BRANCH   1  16
ATOM     16  C   UNL     1      -2.878   1.710  -0.402  0.00  0.00    +0.000 C 
BRANCH  16  17
ATOM     17  C   UNL     1      -3.482   1.985   0.976  0.00  0.00    +0.000 C 
BRANCH  17  18
ATOM     18  N   UNL     1      -4.558   1.020   1.241  0.00  0.00    +0.000 N 
ATOM     19  H   UNL     1      -5.204   1.039   0.439  0.00  0.00    +0.000 HD
BRANCH  18  20
ATOM     20  C   UNL     1      -5.316   1.393   2.442  0.00  0.00    +0.000 C 
ATOM     21  C   UNL     1      -6.637   0.622   2.471  0.00  0.00    +0.000 C 
ENDBRANCH  18  20
BRANCH  18  23
ATOM     22  C   UNL     1      -3.038  -0.407   2.526  0.00  0.00    +0.000 C 
ATOM     23  C   UNL     1      -4.024  -0.344   1.359  0.00  0.00    +0.000 C 
ENDBRANCH  18  23
ENDBRANCH  17  18
ENDBRANCH  16  17
ENDBRANCH   1  16
TORSDOF 6
ENDMDL
MODEL      348
REMARK  Name = ZINC03020679
REMARK  6 active torsions:
REMARK  status: ('A' for Active; 'I' for Inactive)
REMARK    1  A    between atoms: C_3  and  S_10
REMARK    2  A    between atoms: C_4  and  N_9
REMARK    3  A    between atoms: C_6  and  C_7
REMARK    4  A    between atoms: S_10  and  C_11
REMARK    5  A    between atoms: C_11  and  C_12
REMARK    6  A    between atoms: C_12  and  N_19
REMARK                            x       y       z     vdW  Elec       q    Type
REMARK                         _______ _______ _______ _____ _____    ______ ____
ROOT
ATOM      1  C   UNL     1       1.240  -2.059  -0.020  0.00  0.00    +0.000 A 
ATOM      2  C   UNL     1       1.216  -0.682  -0.013  0.00  0.00    +0.000 A 
ATOM      3  C   UNL     1       0.002  -0.004   0.002  0.00  0.00    +0.000 A 
ATOM      4  C   UNL     1      -1.200  -0.719   0.015  0.00  0.00    +0.000 A 
ATOM      5  C   UNL     1      -1.181  -2.100   0.002  0.00  0.00    +0.000 A 
ATOM      6  C   UNL     1       0.042  -2.780  -0.013  0.00  0.00    +0.000 A 
ENDROOT
BRANCH   4   7
ATOM      7  N   UNL     1      -2.422  -0.035   0.037  0.00  0.00    +0.000 N 
ATOM      8  H   UNL     1      -2.435   0.995   0.043  0.00  0.00    +0.000 HD
ATOM      9  H   UNL     1      -3.307  -0.562   0.047  0.00  0.00    +0.000 HD
ENDBRANCH   4   7
BRANCH   6  10
ATOM     10  C   UNL     1       0.067  -4.253  -0.021  0.00  0.00    +0.000 C 
ATOM     11  O   UNL     1      -0.975  -4.878  -0.014  0.00  0.00    +0.000 OA
ATOM     12  O   UNL     1       1.245  -4.906  -0.036  0.00  0.00    +0.000 OA
ENDBRANCH   6  10
BRANCH   3  13
ATOM     13  S   UNL     1      -0.022   1.758   0.012  0.00  0.00    +0.000 S 
BRANCH  13  14
ATOM     14  C   UNL     1       1.732   2.220  -0.003  0.00  0.00    +0.000 C 
BRANCH  14  15
ATOM     15  C   UNL     1       1.857   3.745   0.004  0.00  0.00    +0.000 C 
BRANCH  15  21
ATOM     16  C   UNL     1       3.939   3.716   1.242  0.00  0.00    +0.000 C 
ATOM     17  C   UNL     1       5.427   4.071   1.163  0.00  0.00    +0.000 C 
ATOM     18  O   UNL     1       5.564   5.471   0.906  0.00  0.00    +0.000 OA
ATOM     19  C   UNL     1       4.932   5.899  -0.303  0.00  0.00    +0.000 C 
ATOM     20  C   UNL     1       3.440   5.563  -0.239  0.00  0.00    +0.000 C 
ATOM     21  N   UNL     1       3.291   4.108  -0.027  0.00  0.00    +0.000 NA
ENDBRANCH  15  21
ENDBRANCH  14  15
ENDBRANCH  13  14
ENDBRANCH   3  13
TORSDOF 6
ENDMDL
MODEL      349
REMARK  Name = ZINC19751955
REMARK  8 active torsions:
REMARK  status: ('A' for Active; 'I' for Inactive)
REMARK    1  A    between atoms: C_1  and  O_2
REMARK    2  A    between atoms: O_2  and  C_3
REMARK    3  A    between atoms: C_8  and  O_9
REMARK    4  A    between atoms: O_9  and  C_10
REMARK    5  A    between atoms: N_11  and  C_16
REMARK    6  A    between atoms: C_12  and  C_14
REMARK    7  A    between atoms: C_14  and  N_15
REMARK    8  A    between atoms: C_16  and  C_17
REMARK                            x       y       z     vdW  Elec       q    Type
REMARK                         _______ _______ _______ _____ _____    ______ ____
ROOT
ATOM      1  C   UNL     1      -0.787   2.893   1.346  0.00  0.00    +0.000 A 
ATOM      2  C   UNL     1      -0.260   3.742   0.396  0.00  0.00    +0.000 A 
ATOM      3  C   UNL     1      -0.369   5.126   0.564  0.00  0.00    +0.000 A 
ATOM      4  C   UNL     1      -1.017   5.638   1.700  0.00  0.00    +0.000 A 
ATOM      5  C   UNL     1      -1.544   4.774   2.649  0.00  0.00    +0.000 A 
ATOM      6  C   UNL     1      -1.435   3.408   2.471  0.00  0.00    +0.000 A 
ATOM      7  N   UNL     1      -0.964   7.015   1.580  0.00  0.00    +0.000 N 
ATOM      8  C   UNL     1      -0.311   7.295   0.419  0.00  0.00    +0.000 A 
ATOM      9  N   UNL     1       0.037   6.191  -0.175  0.00  0.00    +0.000 NA
ENDROOT
BRANCH   1  11
ATOM     10  C   UNL     1      -0.013   1.086   0.008  0.00  0.00    +0.000 C 
ATOM     11  O   UNL     1      -0.682   1.547   1.184  0.00  0.00    +0.000 OA
ENDBRANCH   1  11
BRANCH   6  12
ATOM     12  O   UNL     1      -1.956   2.561   3.399  0.00  0.00    +0.000 OA
ATOM     13  C   UNL     1      -2.606   3.152   4.526  0.00  0.00    +0.000 C 
ENDBRANCH   6  12
BRANCH   7  14
ATOM     14  C   UNL     1      -1.510   7.990   2.527  0.00  0.00    +0.000 C 
BRANCH  14  15
ATOM     15  C   UNL     1      -2.934   8.311   2.153  0.00  0.00    +0.000 C 
ATOM     16  O   UNL     1      -3.441   7.779   1.194  0.00  0.00    +0.000 OA
ATOM     17  O   UNL     1      -3.639   9.188   2.885  0.00  0.00    +0.000 OA
ENDBRANCH  14  15
ENDBRANCH   7  14
BRANCH   8  18
ATOM     18  C   UNL     1      -0.032   8.681  -0.102  0.00  0.00    +0.000 C 
BRANCH  18  19
ATOM     19  N   UNL     1      -1.147   9.119  -0.952  0.00  0.00    +0.000 N 
ATOM     20  H   UNL     1      -2.017   9.129  -0.400  0.00  0.00    +0.000 HD
ATOM     21  H   UNL     1      -1.251   8.470  -1.744  0.00  0.00    +0.000 HD
ATOM     22  H   UNL     1      -0.957  10.066  -1.308  0.00  0.00    +0.000 HD
ENDBRANCH  18  19
ENDBRANCH   8  18
TORSDOF 6
ENDMDL
MODEL      350
REMARK  Name = ZINC03683855
REMARK  7 active torsions:
REMARK  status: ('A' for Active; 'I' for Inactive)
REMARK    1  A    between atoms: C_3  and  N_8
REMARK    2  A    between atoms: N_8  and  C_9
REMARK    3  A    between atoms: N_8  and  C_12
REMARK    4  A    between atoms: C_9  and  C_10
REMARK    5  A    between atoms: C_10  and  O_11
REMARK    6  A    between atoms: C_12  and  C_13
REMARK    7  A    between atoms: C_13  and  O_14
REMARK                            x       y       z     vdW  Elec       q    Type
REMARK                         _______ _______ _______ _____ _____    ______ ____
ROOT
ATOM      1  C   UNL     1       0.625   0.155   1.296  0.00  0.00    +0.000 A 
ATOM      2  C   UNL     1       0.608   1.536   1.239  0.00  0.00    +0.000 A 
ATOM      3  C   UNL     1       1.218   2.165   0.150  0.00  0.00    +0.000 A 
ATOM      4  N   UNL     1       1.791   1.417  -0.788  0.00  0.00    +0.000 N 
ATOM      5  C   UNL     1       1.785   0.097  -0.694  0.00  0.00    +0.000 A 
ATOM      6  N   UNL     1       1.216  -0.526   0.324  0.00  0.00    +0.000 NA
ATOM      7  O   UNL     1       2.378  -0.635  -1.668  0.00  0.00    +0.000 OA
ATOM      8  F   UNL     1       0.015   2.261   2.213  0.00  0.00    +0.000 F 
ATOM      9  H   UNL     1       2.243   1.869  -1.595  0.00  0.00    +0.000 HD
ENDROOT
BRANCH   3  10
ATOM     10  N   UNL     1       1.231   3.548   0.052  0.00  0.00    +0.000 N 
BRANCH  10  11
ATOM     11  C   UNL     1       2.602   4.069   0.136  0.00  0.00    +0.000 C 
BRANCH  11  12
ATOM     12  C   UNL     1       2.561   5.592   0.275  0.00  0.00    +0.000 C 
BRANCH  12  13
ATOM     13  O   UNL     1       1.947   5.940   1.518  0.00  0.00    +0.000 OA
ATOM     14  H   UNL     1       2.471   5.555   2.265  0.00  0.00    +0.000 HD
ENDBRANCH  12  13
ENDBRANCH  11  12
ENDBRANCH  10  11
BRANCH  10  15
ATOM     15  C   UNL     1       0.572   3.994  -1.183  0.00  0.00    +0.000 C 
BRANCH  15  16
ATOM     16  C   UNL     1      -0.944   3.862  -1.028  0.00  0.00    +0.000 C 
BRANCH  16  17
ATOM     17  O   UNL     1      -1.400   4.765  -0.019  0.00  0.00    +0.000 OA
ATOM     18  H   UNL     1      -1.175   5.693  -0.280  0.00  0.00    +0.000 HD
ENDBRANCH  16  17
ENDBRANCH  15  16
ENDBRANCH  10  15
ENDBRANCH   3  10
TORSDOF 7
ENDMDL
MODEL      351
REMARK  Name = ZINC19256649
REMARK  8 active torsions:
REMARK  status: ('A' for Active; 'I' for Inactive)
REMARK    1  A    between atoms: C_1  and  O_2
REMARK    2  A    between atoms: O_2  and  C_3
REMARK    3  A    between atoms: C_6  and  C_11
REMARK    4  A    between atoms: C_7  and  O_9
REMARK    5  A    between atoms: O_9  and  C_10
REMARK    6  A    between atoms: C_11  and  C_12
REMARK    7  A    between atoms: C_11  and  N_20
REMARK    8  A    between atoms: C_12  and  N_13
REMARK                            x       y       z     vdW  Elec       q    Type
REMARK                         _______ _______ _______ _____ _____    ______ ____
ROOT
ATOM      1  C   UNL     1      -2.020   2.447   3.501  0.00  0.00    +0.000 C 
ENDROOT
BRANCH   1   5
ATOM      2  C   UNL     1      -3.906  -0.029   0.568  0.00  0.00    +0.000 A 
ATOM      3  C   UNL     1      -4.611   0.385   1.689  0.00  0.00    +0.000 A 
ATOM      4  C   UNL     1      -3.999   1.185   2.635  0.00  0.00    +0.000 A 
ATOM      5  C   UNL     1      -2.684   1.575   2.467  0.00  0.00    +0.000 A 
ATOM      6  C   UNL     1      -1.975   1.163   1.348  0.00  0.00    +0.000 A 
ATOM      7  C   UNL     1      -2.588   0.365   0.395  0.00  0.00    +0.000 A 
BRANCH   2   9
ATOM      8  C   UNL     1      -5.870  -1.178  -0.121  0.00  0.00    +0.000 C 
ATOM      9  O   UNL     1      -4.508  -0.816  -0.362  0.00  0.00    +0.000 OA
ENDBRANCH   2   9
BRANCH   6  10
ATOM     10  O   UNL     1      -0.682   1.547   1.184  0.00  0.00    +0.000 OA
ATOM     11  C   UNL     1      -0.013   1.086   0.008  0.00  0.00    +0.000 C 
ENDBRANCH   6  10
ENDBRANCH   1   5
BRANCH   1  12
ATOM     12  N   UNL     1      -3.047   3.128   4.301  0.00  0.00    +0.000 N 
ATOM     13  H   UNL     1      -3.637   2.427   4.772  0.00  0.00    +0.000 HD
ATOM     14  H   UNL     1      -3.631   3.711   3.686  0.00  0.00    +0.000 HD
ATOM     15  H   UNL     1      -2.593   3.724   5.008  0.00  0.00    +0.000 HD
ENDBRANCH   1  12
BRANCH   1  16
ATOM     16  C   UNL     1      -1.151   1.581   4.417  0.00  0.00    +0.000 C 
BRANCH  16  17
ATOM     17  N   UNL     1      -0.601   2.408   5.493  0.00  0.00    +0.000 N 
ATOM     18  C   UNL     1       0.574   3.042   5.391  0.00  0.00    +0.000 C 
ATOM     19  O   UNL     1       1.307   3.011   4.425  0.00  0.00    +0.000 OA
ATOM     20  C   UNL     1       0.841   3.805   6.670  0.00  0.00    +0.000 C 
ATOM     21  C   UNL     1      -0.391   3.491   7.542  0.00  0.00    +0.000 C 
ATOM     22  C   UNL     1      -1.228   2.588   6.662  0.00  0.00    +0.000 C 
ATOM     23  O   UNL     1      -2.297   2.104   6.967  0.00  0.00    +0.000 OA
ENDBRANCH  16  17
ENDBRANCH   1  16
TORSDOF 6
ENDMDL
MODEL      352
REMARK  Name = ZINC20218694
REMARK  5 active torsions:
REMARK  status: ('A' for Active; 'I' for Inactive)
REMARK    1  A    between atoms: C_6  and  N_7
REMARK    2  A    between atoms: N_7  and  N_8
REMARK    3  A    between atoms: N_8  and  C_9
REMARK    4  A    between atoms: C_9  and  N_10
REMARK    5  A    between atoms: C_11  and  N_12
REMARK                            x       y       z     vdW  Elec       q    Type
REMARK                         _______ _______ _______ _____ _____    ______ ____
ROOT
ATOM      1  N   UNL     1       2.564  -2.665  -0.036  0.00  0.00    +0.000 NA
ATOM      2  H   UNL     1       3.099  -2.330   0.778  0.00  0.00    +0.000 HD
ATOM      3  H   UNL     1       3.082  -2.322  -0.858  0.00  0.00    +0.000 HD
ENDROOT
BRANCH   1   4
ATOM      4  N   UNL     1       1.316  -2.029  -0.021  0.00  0.00    +0.000 N 
ATOM      5  H   UNL     1       0.452  -2.591  -0.015  0.00  0.00    +0.000 HD
BRANCH   4  11
ATOM      6  C   UNL     1       0.002  -0.004   0.002  0.00  0.00    +0.000 A 
ATOM      7  C   UNL     1      -0.017   1.381   0.010  0.00  0.00    +0.000 A 
ATOM      8  C   UNL     1       1.200   2.051   0.002  0.00  0.00    +0.000 A 
ATOM      9  N   UNL     1       2.329   1.367  -0.013  0.00  0.00    +0.000 NA
ATOM     10  N   UNL     1       2.352   0.084  -0.020  0.00  0.00    +0.000 NA
ATOM     11  C   UNL     1       1.243  -0.640  -0.013  0.00  0.00    +0.000 A 
ATOM     12 CL   UNL     1       1.237   3.786   0.010  0.00  0.00    +0.000 Cl
ENDBRANCH   4  11
ENDBRANCH   1   4
BRANCH   1  13
ATOM     13  C   UNL     1       2.636  -4.034  -0.044  0.00  0.00    +0.000 C 
ATOM     14  C   UNL     1       3.979  -4.718  -0.060  0.00  0.00    +0.000 C 
BRANCH  14  15
ATOM     15  N   UNL     1       3.787  -6.170  -0.066  0.00  0.00    +0.000 N 
ATOM     16  C   UNL     1       4.284  -7.045  -0.957  0.00  0.00    +0.000 A 
ATOM     17  N   UNL     1       3.887  -8.243  -0.614  0.00  0.00    +0.000 NA
ATOM     18  C   UNL     1       3.137  -8.174   0.485  0.00  0.00    +0.000 A 
ATOM     19  N   UNL     1       3.051  -6.925   0.862  0.00  0.00    +0.000 NA
ENDBRANCH  14  15
BRANCH  13  20
ATOM     20  N   UNL     1       1.551  -4.738  -0.037  0.00  0.00    +0.000 N 
ATOM     21  H   UNL     1       0.634  -4.270  -0.026  0.00  0.00    +0.000 HD
ATOM     22  H   UNL     1       1.605  -5.766  -0.043  0.00  0.00    +0.000 HD
ENDBRANCH  13  20
ENDBRANCH   1  13
TORSDOF 5
ENDMDL
MODEL      353
REMARK  Name = ZINC19846144
REMARK  7 active torsions:
REMARK  status: ('A' for Active; 'I' for Inactive)
REMARK    1  A    between atoms: C_1  and  O_2
REMARK    2  A    between atoms: O_2  and  C_3
REMARK    3  A    between atoms: C_6  and  N_19
REMARK    4  A    between atoms: C_8  and  N_9
REMARK    5  A    between atoms: C_10  and  C_12
REMARK    6  A    between atoms: C_12  and  S_13
REMARK    7  A    between atoms: S_13  and  C_14
REMARK                            x       y       z     vdW  Elec       q    Type
REMARK                         _______ _______ _______ _____ _____    ______ ____
ROOT
ATOM      1  C   UNL     1       7.847  -4.273   0.097  0.00  0.00    +0.000 A 
ATOM      2  C   UNL     1       8.494  -5.496   0.177  0.00  0.00    +0.000 A 
ATOM      3  C   UNL     1       7.763  -6.668   0.171  0.00  0.00    +0.000 A 
ATOM      4  C   UNL     1       6.377  -6.625   0.085  0.00  0.00    +0.000 A 
ATOM      5  C   UNL     1       5.724  -5.402   0.010  0.00  0.00    +0.000 A 
ATOM      6  C   UNL     1       6.458  -4.226   0.011  0.00  0.00    +0.000 A 
ENDROOT
BRANCH   6   7
ATOM      7  N   UNL     1       5.802  -2.990  -0.069  0.00  0.00    +0.000 N 
ATOM      8  C   UNL     1       4.580  -2.911  -0.633  0.00  0.00    +0.000 C 
ATOM      9  O   UNL     1       4.091  -3.888  -1.160  0.00  0.00    +0.000 OA
ATOM     10  H   UNL     1       6.254  -2.142   0.302  0.00  0.00    +0.000 HD
BRANCH   8  11
ATOM     11  C   UNL     1       3.822  -1.609  -0.608  0.00  0.00    +0.000 C 
BRANCH  11  12
ATOM     12  S   UNL     1       2.228  -1.823  -1.438  0.00  0.00    +0.000 S 
BRANCH  12  13
ATOM     13  C   UNL     1       1.572  -0.197  -1.266  0.00  0.00    +0.000 A 
ATOM     14  N   UNL     1       0.372   0.229  -1.716  0.00  0.00    +0.000 NA
ATOM     15  N   UNL     1       0.274   1.583  -1.358  0.00  0.00    +0.000 NA
ATOM     16  C   UNL     1       1.378   1.895  -0.734  0.00  0.00    +0.000 A 
ATOM     17  N   UNL     1       2.166   0.820  -0.677  0.00  0.00    +0.000 NA
ENDBRANCH  12  13
ENDBRANCH  11  12
ENDBRANCH   8  11
ENDBRANCH   6   7
BRANCH   4  18
ATOM     18  N   UNL     1       5.639  -7.814   0.080  0.00  0.00    +0.000 N 
ATOM     19  H   UNL     1       6.123  -8.721   0.140  0.00  0.00    +0.000 HD
ATOM     20  H   UNL     1       4.612  -7.781   0.017  0.00  0.00    +0.000 HD
ENDBRANCH   4  18
BRANCH   1  22
ATOM     21  C   UNL     1       9.989  -3.244   0.195  0.00  0.00    +0.000 C 
ATOM     22  O   UNL     1       8.569  -3.120   0.103  0.00  0.00    +0.000 OA
ENDBRANCH   1  22
TORSDOF 6
ENDMDL
MODEL      354
REMARK  Name = ZINC15081736
REMARK  7 active torsions:
REMARK  status: ('A' for Active; 'I' for Inactive)
REMARK    1  A    between atoms: C_1  and  O_2
REMARK    2  A    between atoms: O_2  and  C_3
REMARK    3  A    between atoms: C_6  and  O_18
REMARK    4  A    between atoms: C_7  and  C_9
REMARK    5  A    between atoms: N_10  and  N_11
REMARK    6  A    between atoms: N_16  and  N_17
REMARK    7  A    between atoms: O_18  and  C_19
REMARK                            x       y       z     vdW  Elec       q    Type
REMARK                         _______ _______ _______ _____ _____    ______ ____
ROOT
ATOM      1  C   UNL     1      -0.831   1.655   6.043  0.00  0.00    +0.000 C 
ATOM      2  N   UNL     1      -0.318   1.304   7.183  0.00  0.00    +0.000 NA
ENDROOT
BRANCH   2   3
ATOM      3  N   UNL     1      -0.919   1.718   8.379  0.00  0.00    +0.000 N 
ATOM      4  C   UNL     1      -0.372   1.343   9.595  0.00  0.00    +0.000 A 
ATOM      5  N   UNL     1       0.700   0.607   9.775  0.00  0.00    +0.000 NA
ATOM      6  N   UNL     1       0.920   0.457  11.033  0.00  0.00    +0.000 NA
ATOM      7  C   UNL     1       0.009   1.083  11.724  0.00  0.00    +0.000 A 
ATOM      8  N   UNL     1      -0.842   1.675  10.834  0.00  0.00    +0.000 N 
ATOM      9  H   UNL     1      -1.767   2.302   8.354  0.00  0.00    +0.000 HD
BRANCH   8  10
ATOM     10  N   UNL     1      -1.938   2.437  11.123  0.00  0.00    +0.000 N 
ATOM     11  H   UNL     1      -2.450   2.790  10.302  0.00  0.00    +0.000 HD
ATOM     12  H   UNL     1      -2.245   2.654  12.082  0.00  0.00    +0.000 HD
ENDBRANCH   8  10
ENDBRANCH   2   3
BRANCH   1  17
ATOM     13  C   UNL     1      -0.148   1.182   2.380  0.00  0.00    +0.000 A 
ATOM     14  C   UNL     1       0.993   0.391   2.418  0.00  0.00    +0.000 A 
ATOM     15  C   UNL     1       1.544   0.020   3.630  0.00  0.00    +0.000 A 
ATOM     16  C   UNL     1       0.956   0.425   4.816  0.00  0.00    +0.000 A 
ATOM     17  C   UNL     1      -0.199   1.219   4.785  0.00  0.00    +0.000 A 
ATOM     18  C   UNL     1      -0.747   1.595   3.557  0.00  0.00    +0.000 A 
BRANCH  13  20
ATOM     19  C   UNL     1      -0.013   1.086   0.008  0.00  0.00    +0.000 C 
ATOM     20  O   UNL     1      -0.682   1.547   1.184  0.00  0.00    +0.000 OA
ENDBRANCH  13  20
BRANCH  16  21
ATOM     21  O   UNL     1       1.496   0.054   6.006  0.00  0.00    +0.000 OA
ATOM     22  C   UNL     1       2.673  -0.755   5.960  0.00  0.00    +0.000 C 
ENDBRANCH  16  21
ENDBRANCH   1  17
TORSDOF 5
ENDMDL
MODEL      355
REMARK  Name = ZINC19677240
REMARK  9 active torsions:
REMARK  status: ('A' for Active; 'I' for Inactive)
REMARK    1  A    between atoms: C_1  and  C_2
REMARK    2  A    between atoms: C_2  and  C_3
REMARK    3  A    between atoms: C_3  and  S_4
REMARK    4  A    between atoms: S_4  and  N_7
REMARK    5  A    between atoms: C_13  and  C_15
REMARK    6  A    between atoms: C_15  and  C_16
REMARK    7  A    between atoms: C_15  and  N_19
REMARK    8  A    between atoms: C_16  and  C_17
REMARK    9  A    between atoms: C_16  and  C_18
REMARK                            x       y       z     vdW  Elec       q    Type
REMARK                         _______ _______ _______ _____ _____    ______ ____
ROOT
ATOM      1  N   UNL     1      -0.187   5.611   3.736  0.00  0.00    +0.000 NA
ATOM      2  C   UNL     1      -1.060   4.868   4.656  0.00  0.00    +0.000 C 
ATOM      3  C   UNL     1      -0.347   3.574   5.069  0.00  0.00    +0.000 C 
ATOM      4  N   UNL     1       0.143   2.901   3.858  0.00  0.00    +0.000 N 
ATOM      5  C   UNL     1       1.020   3.642   2.941  0.00  0.00    +0.000 C 
ATOM      6  C   UNL     1       0.303   4.938   2.525  0.00  0.00    +0.000 C 
ATOM      7  C   UNL     1      -0.202   1.624   3.597  0.00  0.00    +0.000 C 
ATOM      8  O   UNL     1      -0.840   0.990   4.409  0.00  0.00    +0.000 OA
ENDROOT
BRANCH   1   9
ATOM      9  S   UNL     1       0.236   7.180   4.058  0.00  0.00    +0.000 S 
ATOM     10  O   UNL     1       0.510   7.750   2.785  0.00  0.00    +0.000 OA
ATOM     11  O   UNL     1      -0.820   7.682   4.864  0.00  0.00    +0.000 OA
BRANCH   9  12
ATOM     12  C   UNL     1       1.763   7.061   5.030  0.00  0.00    +0.000 C 
BRANCH  12  14
ATOM     13  C   UNL     1       3.538   8.366   6.208  0.00  0.00    +0.000 C 
ATOM     14  C   UNL     1       2.250   8.466   5.388  0.00  0.00    +0.000 C 
ENDBRANCH  12  14
ENDBRANCH   9  12
ENDBRANCH   1   9
BRANCH   7  15
ATOM     15  C   UNL     1       0.207   0.986   2.294  0.00  0.00    +0.000 C 
BRANCH  15  16
ATOM     16  N   UNL     1       0.492  -0.438   2.515  0.00  0.00    +0.000 N 
ATOM     17  H   UNL     1      -0.352  -0.906   2.877  0.00  0.00    +0.000 HD
ATOM     18  H   UNL     1       1.256  -0.534   3.199  0.00  0.00    +0.000 HD
ATOM     19  H   UNL     1       0.771  -0.875   1.626  0.00  0.00    +0.000 HD
ENDBRANCH  15  16
BRANCH  15  20
ATOM     20  C   UNL     1      -0.929   1.127   1.279  0.00  0.00    +0.000 C 
ATOM     21  C   UNL     1      -0.542   0.417  -0.021  0.00  0.00    +0.000 C 
ATOM     22  C   UNL     1      -1.178   2.610   0.995  0.00  0.00    +0.000 C 
ENDBRANCH  15  20
ENDBRANCH   7  15
TORSDOF 6
ENDMDL
MODEL      356
REMARK  Name = ZINC16039563
REMARK  8 active torsions:
REMARK  status: ('A' for Active; 'I' for Inactive)
REMARK    1  A    between atoms: C_1  and  C_2
REMARK    2  A    between atoms: C_2  and  C_3
REMARK    3  A    between atoms: C_3  and  C_4
REMARK    4  A    between atoms: C_4  and  C_5
REMARK    5  A    between atoms: C_5  and  S_6
REMARK    6  A    between atoms: S_6  and  C_7
REMARK    7  A    between atoms: C_12  and  N_17
REMARK    8  A    between atoms: C_14  and  O_16
REMARK                            x       y       z     vdW  Elec       q    Type
REMARK                         _______ _______ _______ _____ _____    ______ ____
ROOT
ATOM      1  C   UNL     1      -2.157   4.082   0.043  0.00  0.00    +0.000 A 
ATOM      2  N   UNL     1      -1.552   5.245   0.042  0.00  0.00    +0.000 NA
ATOM      3  N   UNL     1      -0.276   5.085   0.029  0.00  0.00    +0.000 NA
ATOM      4  C   UNL     1       0.016   3.798   0.021  0.00  0.00    +0.000 A 
ATOM      5  N   UNL     1      -1.184   3.120   0.029  0.00  0.00    +0.000 N 
ATOM      6  C   UNL     1      -1.200   1.750   0.017  0.00  0.00    +0.000 A 
ATOM      7  C   UNL     1      -0.013   1.076   0.008  0.00  0.00    +0.000 A 
ATOM      8  C   UNL     1       1.188   1.801   0.000  0.00  0.00    +0.000 A 
ATOM      9  N   UNL     1       1.175   3.121   0.007  0.00  0.00    +0.000 NA
ENDROOT
BRANCH   6  10
ATOM     10  N   UNL     1      -2.394   1.064   0.019  0.00  0.00    +0.000 N 
ATOM     11  H   UNL     1      -3.282   1.587   0.030  0.00  0.00    +0.000 HD
ATOM     12  H   UNL     1      -2.402   0.034   0.010  0.00  0.00    +0.000 HD
ENDBRANCH   6  10
BRANCH   8  13
ATOM     13  O   UNL     1       2.372   1.141  -0.014  0.00  0.00    +0.000 OA
ATOM     14  H   UNL     1       2.330   0.558  -0.813  0.00  0.00    +0.000 HD
ENDBRANCH   8  13
BRANCH   1  15
ATOM     15  S   UNL     1      -3.898   3.808   0.058  0.00  0.00    +0.000 S 
BRANCH  15  16
ATOM     16  C   UNL     1      -4.604   5.479   0.072  0.00  0.00    +0.000 C 
BRANCH  16  17
ATOM     17  C   UNL     1      -6.131   5.387   0.086  0.00  0.00    +0.000 C 
BRANCH  17  18
ATOM     18  C   UNL     1      -6.727   6.796   0.097  0.00  0.00    +0.000 C 
BRANCH  18  20
ATOM     19  C   UNL     1      -8.851   8.113   0.123  0.00  0.00    +0.000 C 
ATOM     20  C   UNL     1      -8.255   6.703   0.111  0.00  0.00    +0.000 C 
ENDBRANCH  18  20
ENDBRANCH  17  18
ENDBRANCH  16  17
ENDBRANCH  15  16
ENDBRANCH   1  15
TORSDOF 7
ENDMDL
MODEL      357
REMARK  Name = ZINC20247464
REMARK  7 active torsions:
REMARK  status: ('A' for Active; 'I' for Inactive)
REMARK    1  A    between atoms: C_1  and  C_2
REMARK    2  A    between atoms: C_2  and  C_3
REMARK    3  A    between atoms: C_2  and  N_6
REMARK    4  A    between atoms: C_3  and  O_4
REMARK    5  A    between atoms: O_4  and  C_5
REMARK    6  A    between atoms: N_6  and  S_7
REMARK    7  A    between atoms: S_7  and  N_10
REMARK                            x       y       z     vdW  Elec       q    Type
REMARK                         _______ _______ _______ _____ _____    ______ ____
ROOT
ATOM      1  S   UNL     1      -1.450   2.297   0.021  0.00  0.00    +0.000 S 
ATOM      2  O   UNL     1      -1.180   3.581  -0.524  0.00  0.00    +0.000 OA
ATOM      3  O   UNL     1      -2.429   1.426  -0.529  0.00  0.00    +0.000 OA
ENDROOT
BRANCH   1   4
ATOM      4  N   UNL     1      -0.018   1.467   0.010  0.00  0.00    +0.000 NA
ATOM      5  C   UNL     1       1.268   2.180   0.002  0.00  0.00    +0.000 C 
ATOM      6  C   UNL     1       2.125   1.626  -1.142  0.00  0.00    +0.000 C 
ATOM      7  N   UNL     1       2.225   0.166  -1.011  0.00  0.00    +0.000 N 
ATOM      8  C   UNL     1       0.908  -0.472  -1.141  0.00  0.00    +0.000 C 
ATOM      9  C   UNL     1       0.002  -0.004   0.002  0.00  0.00    +0.000 C 
ATOM     10  H   UNL     1       2.852  -0.198  -1.743  0.00  0.00    +0.000 HD
ATOM     11  H   UNL     1       2.624  -0.066  -0.090  0.00  0.00    +0.000 HD
ENDBRANCH   1   4
BRANCH   1  12
ATOM     12  N   UNL     1      -1.867   2.534   1.607  0.00  0.00    +0.000 NA
ATOM     13  H   UNL     1      -2.713   2.090   1.989  0.00  0.00    +0.000 HD
BRANCH  12  15
ATOM     14  C   UNL     1      -0.043   2.497   3.236  0.00  0.00    +0.000 C 
ATOM     15  C   UNL     1      -1.030   3.376   2.466  0.00  0.00    +0.000 C 
BRANCH  15  16
ATOM     16  C   UNL     1      -1.916   4.135   3.455  0.00  0.00    +0.000 C 
BRANCH  16  17
ATOM     17  O   UNL     1      -2.550   3.206   4.337  0.00  0.00    +0.000 OA
ATOM     18  C   UNL     1      -3.405   3.816   5.306  0.00  0.00    +0.000 C 
ENDBRANCH  16  17
ENDBRANCH  15  16
ENDBRANCH  12  15
ENDBRANCH   1  12
TORSDOF 5
ENDMDL
MODEL      358
REMARK  Name = ZINC15377258
REMARK  9 active torsions:
REMARK  status: ('A' for Active; 'I' for Inactive)
REMARK    1  A    between atoms: C_1  and  C_2
REMARK    2  A    between atoms: C_2  and  C_3
REMARK    3  A    between atoms: C_2  and  C_4
REMARK    4  A    between atoms: C_2  and  N_19
REMARK    5  A    between atoms: C_5  and  C_6
REMARK    6  A    between atoms: C_5  and  N_19
REMARK    7  A    between atoms: N_8  and  C_9
REMARK    8  A    between atoms: C_13  and  S_15
REMARK    9  A    between atoms: S_15  and  C_18
REMARK                            x       y       z     vdW  Elec       q    Type
REMARK                         _______ _______ _______ _____ _____    ______ ____
ROOT
ATOM      1  C   UNL     1      -2.415  -0.302  -0.090  0.00  0.00    +0.000 C 
ATOM      2  O   UNL     1      -1.359  -0.900  -0.098  0.00  0.00    +0.000 OA
ATOM      3  N   UNL     1      -2.428   1.041   0.019  0.00  0.00    +0.000 N 
ATOM      4  H   UNL     1      -3.324   1.542   0.108  0.00  0.00    +0.000 HD
ENDROOT
BRANCH   3   5
ATOM      5  C   UNL     1      -1.225   1.755   0.012  0.00  0.00    +0.000 A 
ATOM      6  C   UNL     1      -0.152   1.303  -0.746  0.00  0.00    +0.000 A 
ATOM      7  C   UNL     1       1.032   2.013  -0.756  0.00  0.00    +0.000 A 
ATOM      8  C   UNL     1       1.152   3.171  -0.009  0.00  0.00    +0.000 A 
ATOM      9  C   UNL     1       0.088   3.621   0.750  0.00  0.00    +0.000 A 
ATOM     10  C   UNL     1      -1.099   2.915   0.765  0.00  0.00    +0.000 A 
BRANCH   9  11
ATOM     11  S   UNL     1       0.246   5.097   1.700  0.00  0.00    +0.000 S 
ATOM     12  O   UNL     1      -0.685   4.945   2.763  0.00  0.00    +0.000 OA
ATOM     13  O   UNL     1       1.637   5.210   1.966  0.00  0.00    +0.000 OA
ATOM     14  C   UNL     1      -0.288   6.426   0.587  0.00  0.00    +0.000 C 
ENDBRANCH   9  11
ENDBRANCH   3   5
BRANCH   1  15
ATOM     15  C   UNL     1      -3.712  -1.062  -0.201  0.00  0.00    +0.000 C 
BRANCH  15  16
ATOM     16  N   UNL     1      -3.420  -2.504  -0.308  0.00  0.00    +0.000 N 
ATOM     17  H   UNL     1      -2.904  -2.810   0.529  0.00  0.00    +0.000 HD
ATOM     18  H   UNL     1      -2.839  -2.673  -1.142  0.00  0.00    +0.000 HD
BRANCH  16  20
ATOM     19  C   UNL     1      -5.440  -2.830  -1.666  0.00  0.00    +0.000 C 
ATOM     20  C   UNL     1      -4.673  -3.274  -0.419  0.00  0.00    +0.000 C 
ATOM     21  C   UNL     1      -4.339  -4.763  -0.527  0.00  0.00    +0.000 C 
ATOM     22  C   UNL     1      -5.535  -3.034   0.822  0.00  0.00    +0.000 C 
ENDBRANCH  16  20
ENDBRANCH  15  16
ENDBRANCH   1  15
TORSDOF 5
ENDMDL
MODEL      359
REMARK  Name = ZINC21953394
REMARK  9 active torsions:
REMARK  status: ('A' for Active; 'I' for Inactive)
REMARK    1  A    between atoms: C_1  and  C_2
REMARK    2  A    between atoms: C_2  and  C_3
REMARK    3  A    between atoms: C_2  and  N_20
REMARK    4  A    between atoms: C_8  and  C_15
REMARK    5  A    between atoms: C_10  and  C_11
REMARK    6  A    between atoms: C_11  and  O_13
REMARK    7  A    between atoms: O_13  and  C_14
REMARK    8  A    between atoms: C_15  and  O_17
REMARK    9  A    between atoms: O_17  and  C_18
REMARK                            x       y       z     vdW  Elec       q    Type
REMARK                         _______ _______ _______ _____ _____    ______ ____
ROOT
ATOM      1  C   UNL     1       2.378   0.121  -0.403  0.00  0.00    +0.000 C 
ATOM      2  C   UNL     1       1.258  -0.590   0.363  0.00  0.00    +0.000 C 
ATOM      3  O   UNL     1       0.002  -0.004   0.002  0.00  0.00    +0.000 OA
ATOM      4  C   UNL     1      -0.017   1.377   0.010  0.00  0.00    +0.000 A 
ATOM      5  C   UNL     1       1.168   2.119   0.002  0.00  0.00    +0.000 A 
ATOM      6  C   UNL     1       1.064   3.510   0.013  0.00  0.00    +0.000 A 
ATOM      7  S   UNL     1      -0.697   3.779   0.032  0.00  0.00    +0.000 S 
ATOM      8  C   UNL     1      -1.223   2.077   0.031  0.00  0.00    +0.000 A 
ATOM      9  O   UNL     1       2.402   1.500  -0.017  0.00  0.00    +0.000 OA
ENDROOT
BRANCH   8  10
ATOM     10  C   UNL     1      -2.588   1.543   0.045  0.00  0.00    +0.000 C 
ATOM     11  O   UNL     1      -2.771   0.341   0.040  0.00  0.00    +0.000 OA
BRANCH  10  12
ATOM     12  O   UNL     1      -3.641   2.386   0.066  0.00  0.00    +0.000 OA
ATOM     13  C   UNL     1      -4.964   1.787   0.079  0.00  0.00    +0.000 C 
ENDBRANCH  10  12
ENDBRANCH   8  10
BRANCH   1  15
ATOM     14  C   UNL     1       4.851   0.260  -0.734  0.00  0.00    +0.000 C 
ATOM     15  C   UNL     1       3.722  -0.528  -0.067  0.00  0.00    +0.000 C 
BRANCH  15  16
ATOM     16  N   UNL     1       3.916  -0.526   1.389  0.00  0.00    +0.000 N 
ATOM     17  H   UNL     1       3.908   0.444   1.736  0.00  0.00    +0.000 HD
ATOM     18  H   UNL     1       4.821  -0.964   1.616  0.00  0.00    +0.000 HD
ATOM     19  H   UNL     1       3.157  -1.057   1.838  0.00  0.00    +0.000 HD
ENDBRANCH  15  16
ENDBRANCH   1  15
BRANCH   6  20
ATOM     20  C   UNL     1       2.139   4.506   0.009  0.00  0.00    +0.000 C 
ATOM     21  O   UNL     1       3.300   4.146  -0.005  0.00  0.00    +0.000 OA
BRANCH  20  22
ATOM     22  O   UNL     1       1.840   5.821   0.021  0.00  0.00    +0.000 OA
ATOM     23  C   UNL     1       2.956   6.750   0.016  0.00  0.00    +0.000 C 
ENDBRANCH  20  22
ENDBRANCH   6  20
TORSDOF 6
ENDMDL
MODEL      360
REMARK  Name = ZINC31425121
REMARK  6 active torsions:
REMARK  status: ('A' for Active; 'I' for Inactive)
REMARK    1  A    between atoms: N_3  and  C_9
REMARK    2  A    between atoms: C_9  and  C_10
REMARK    3  A    between atoms: C_10  and  C_11
REMARK    4  A    between atoms: C_10  and  O_19
REMARK    5  A    between atoms: C_11  and  N_12
REMARK    6  A    between atoms: C_16  and  O_18
REMARK                            x       y       z     vdW  Elec       q    Type
REMARK                         _______ _______ _______ _____ _____    ______ ____
ROOT
ATOM      1  C   UNL     1      -0.753   1.593  -1.232  0.00  0.00    +0.000 C 
ENDROOT
BRANCH   1   2
ATOM      2  O   UNL     1      -2.054   1.005  -1.282  0.00  0.00    +0.000 OA
ATOM      3  H   UNL     1      -2.562   1.256  -0.470  0.00  0.00    +0.000 HD
ENDBRANCH   1   2
BRANCH   1   4
ATOM      4  C   UNL     1      -0.013   1.086   0.008  0.00  0.00    +0.000 C 
BRANCH   4   7
ATOM      5  C   UNL     1      -1.267   2.737   2.957  0.00  0.00    +0.000 A 
ATOM      6  C   UNL     1      -0.388   2.677   1.938  0.00  0.00    +0.000 A 
ATOM      7  N   UNL     1      -0.698   1.558   1.213  0.00  0.00    +0.000 N 
ATOM      8  C   UNL     1      -1.751   0.968   1.820  0.00  0.00    +0.000 A 
ATOM      9  N   UNL     1      -2.086   1.679   2.862  0.00  0.00    +0.000 NA
ATOM     10  N   UNL     1      -2.415  -0.278   1.376  0.00  0.00    +0.000 N 
ATOM     11  O   UNL     1      -2.015  -0.861   0.384  0.00  0.00    +0.000 OA
ATOM     12  O   UNL     1      -3.360  -0.721   2.003  0.00  0.00    +0.000 OA
ENDBRANCH   4   7
ENDBRANCH   1   4
BRANCH   1  13
ATOM     13  C   UNL     1       0.031   1.205  -2.487  0.00  0.00    +0.000 C 
BRANCH  13  14
ATOM     14  N   UNL     1      -0.615   1.794  -3.668  0.00  0.00    +0.000 N 
ATOM     15  C   UNL     1      -0.528   3.259  -3.640  0.00  0.00    +0.000 C 
ATOM     16  C   UNL     1      -1.333   3.842  -4.804  0.00  0.00    +0.000 C 
ATOM     17  C   UNL     1      -0.775   3.304  -6.125  0.00  0.00    +0.000 C 
ATOM     18  C   UNL     1      -0.832   1.774  -6.108  0.00  0.00    +0.000 C 
ATOM     19  C   UNL     1      -0.041   1.251  -4.907  0.00  0.00    +0.000 C 
ATOM     20  H   UNL     1      -1.612   1.538  -3.646  0.00  0.00    +0.000 HD
BRANCH  18  21
ATOM     21  O   UNL     1      -0.261   1.262  -7.314  0.00  0.00    +0.000 OA
ATOM     22  H   UNL     1       0.682   1.555  -7.384  0.00  0.00    +0.000 HD
ENDBRANCH  18  21
ENDBRANCH  13  14
ENDBRANCH   1  13
TORSDOF 6
ENDMDL
MODEL      361
REMARK  Name = ZINC05830677
REMARK  5 active torsions:
REMARK  status: ('A' for Active; 'I' for Inactive)
REMARK    1  A    between atoms: C_2  and  C_3
REMARK    2  A    between atoms: C_3  and  N_4
REMARK    3  A    between atoms: C_7  and  C_13
REMARK    4  A    between atoms: C_13  and  N_15
REMARK    5  A    between atoms: N_15  and  N_16
REMARK                            x       y       z     vdW  Elec       q    Type
REMARK                         _______ _______ _______ _____ _____    ______ ____
ROOT
ATOM      1  N   UNL     1       1.266   2.963   0.005  0.00  0.00    +0.000 N 
ATOM      2  C   UNL     1       0.188   3.775   0.020  0.00  0.00    +0.000 A 
ATOM      3  O   UNL     1       0.308   4.981   0.025  0.00  0.00    +0.000 OA
ATOM      4  C   UNL     1      -1.181   3.121   0.029  0.00  0.00    +0.000 A 
ATOM      5  C   UNL     1      -1.200   1.605   0.017  0.00  0.00    +0.000 A 
ATOM      6  O   UNL     1      -2.245   0.989   0.018  0.00  0.00    +0.000 OA
ATOM      7  N   UNL     1      -0.011   0.966   0.007  0.00  0.00    +0.000 N 
ATOM      8  C   UNL     1       1.150   1.631  -0.000  0.00  0.00    +0.000 A 
ATOM      9  O   UNL     1       2.173   0.976  -0.013  0.00  0.00    +0.000 OA
ATOM     10  H   UNL     1       0.003  -0.064   0.006  0.00  0.00    +0.000 HD
ENDROOT
BRANCH   4  11
ATOM     11  C   UNL     1      -1.918   3.593   1.256  0.00  0.00    +0.000 C 
ATOM     12  C   UNL     1      -3.059   4.245   1.131  0.00  0.00    +0.000 C 
BRANCH  11  13
ATOM     13  N   UNL     1      -1.396   3.343   2.519  0.00  0.00    +0.000 N 
ATOM     14  H   UNL     1      -0.505   2.835   2.616  0.00  0.00    +0.000 HD
BRANCH  13  15
ATOM     15  N   UNL     1      -2.063   3.771   3.631  0.00  0.00    +0.000 NA
ATOM     16  C   UNL     1      -1.272   4.764   4.371  0.00  0.00    +0.000 C 
ATOM     17  C   UNL     1      -2.079   5.260   5.574  0.00  0.00    +0.000 C 
ATOM     18  O   UNL     1      -2.445   4.143   6.389  0.00  0.00    +0.000 OA
ATOM     19  C   UNL     1      -3.218   3.156   5.700  0.00  0.00    +0.000 C 
ATOM     20  C   UNL     1      -2.421   2.639   4.499  0.00  0.00    +0.000 C 
ENDBRANCH  13  15
ENDBRANCH  11  13
ENDBRANCH   4  11
BRANCH   1  21
ATOM     21  C   UNL     1       2.604   3.560  -0.005  0.00  0.00    +0.000 C 
BRANCH  21  23
ATOM     22  C   UNL     1       3.426   4.962  -1.827  0.00  0.00    +0.000 C 
ATOM     23  C   UNL     1       3.049   3.772  -1.429  0.00  0.00    +0.000 C 
ENDBRANCH  21  23
ENDBRANCH   1  21
TORSDOF 5
ENDMDL
MODEL      362
REMARK  Name = ZINC29550972
REMARK  7 active torsions:
REMARK  status: ('A' for Active; 'I' for Inactive)
REMARK    1  A    between atoms: C_6  and  N_7
REMARK    2  A    between atoms: N_7  and  C_8
REMARK    3  A    between atoms: C_8  and  C_9
REMARK    4  A    between atoms: C_9  and  P_10
REMARK    5  A    between atoms: C_9  and  P_14
REMARK    6  A    between atoms: P_10  and  O_13
REMARK    7  A    between atoms: P_14  and  O_17
REMARK                            x       y       z     vdW  Elec       q    Type
REMARK                         _______ _______ _______ _____ _____    ______ ____
ROOT
ATOM      1  C   UNL     1      -4.854   4.130   0.068  0.00  0.00    +0.000 C 
ENDROOT
BRANCH   1   2
ATOM      2  P   UNL     1      -4.733   5.170   1.560  0.00  0.00    +0.000 P 
ATOM      3  O   UNL     1      -4.809   4.314   2.765  0.00  0.00    +0.000 OA
ATOM      4  O   UNL     1      -3.330   5.961   1.551  0.00  0.00    +0.000 OA
BRANCH   2   5
ATOM      5  O   UNL     1      -5.945   6.229   1.576  0.00  0.00    +0.000 OA
ATOM      6  H   UNL     1      -6.808   5.744   1.582  0.00  0.00    +0.000 HD
ENDBRANCH   2   5
ENDBRANCH   1   2
BRANCH   1   7
ATOM      7  P   UNL     1      -4.760   5.184  -1.417  0.00  0.00    +0.000 P 
ATOM      8  O   UNL     1      -3.471   5.911  -1.425  0.00  0.00    +0.000 OA
ATOM      9  O   UNL     1      -4.867   4.266  -2.735  0.00  0.00    +0.000 OA
BRANCH   7  10
ATOM     10  O   UNL     1      -5.973   6.243  -1.401  0.00  0.00    +0.000 OA
ATOM     11  H   UNL     1      -5.908   6.809  -0.591  0.00  0.00    +0.000 HD
ENDBRANCH   7  10
ENDBRANCH   1   7
BRANCH   1  12
ATOM     12  C   UNL     1      -3.701   3.124   0.052  0.00  0.00    +0.000 C 
BRANCH  12  13
ATOM     13  N   UNL     1      -2.425   3.843   0.044  0.00  0.00    +0.000 N 
ATOM     14  H   UNL     1      -2.414   4.873   0.049  0.00  0.00    +0.000 HD
BRANCH  13  20
ATOM     15  C   UNL     1      -1.221   1.740   0.017  0.00  0.00    +0.000 A 
ATOM     16  C   UNL     1      -0.013   1.076   0.008  0.00  0.00    +0.000 A 
ATOM     17  N   UNL     1       1.126   1.743   0.001  0.00  0.00    +0.000 N 
ATOM     18  C   UNL     1       1.162   3.062   0.007  0.00  0.00    +0.000 A 
ATOM     19  C   UNL     1      -0.002   3.801   0.022  0.00  0.00    +0.000 A 
ATOM     20  C   UNL     1      -1.227   3.135   0.030  0.00  0.00    +0.000 A 
ATOM     21  H   UNL     1       2.013   1.219  -0.010  0.00  0.00    +0.000 HD
ENDBRANCH  13  20
ENDBRANCH  12  13
ENDBRANCH   1  12
TORSDOF 7
ENDMDL
MODEL      363
REMARK  Name = ZINC13860820
REMARK  9 active torsions:
REMARK  status: ('A' for Active; 'I' for Inactive)
REMARK    1  A    between atoms: C_1  and  C_2
REMARK    2  A    between atoms: C_3  and  C_16
REMARK    3  A    between atoms: N_6  and  C_8
REMARK    4  A    between atoms: C_8  and  C_9
REMARK    5  A    between atoms: C_10  and  C_15
REMARK    6  A    between atoms: C_13  and  O_14
REMARK    7  A    between atoms: C_16  and  CA_17
REMARK    8  A    between atoms: CA_17  and  C_18
REMARK    9  A    between atoms: CA_17  and  N_21
REMARK                            x       y       z     vdW  Elec       q    Type
REMARK                         _______ _______ _______ _____ _____    ______ ____
ROOT
ATOM      1  C   UNL     1      -2.498  -3.887   1.967  0.00  0.00    +0.000 C 
ATOM      2  C   UNL     1      -3.488  -2.796   1.651  0.00  0.00    +0.000 A 
ATOM      3  C   UNL     1      -3.199  -1.492   1.425  0.00  0.00    +0.000 A 
ATOM      4  C   UNL     1      -4.459  -0.896   1.172  0.00  0.00    +0.000 A 
ATOM      5  O   UNL     1      -4.681   0.276   0.912  0.00  0.00    +0.000 OA
ATOM      6  N   UNL     1      -5.361  -1.892   1.276  0.00  0.00    +0.000 N 
ATOM      7  O   UNL     1      -4.812  -2.937   1.544  0.00  0.00    +0.000 OA
ENDROOT
BRANCH   6   8
ATOM      8  C   UNL     1      -6.806  -1.733   1.091  0.00  0.00    +0.000 C 
BRANCH   8   9
ATOM      9  C   UNL     1      -7.111  -1.589  -0.378  0.00  0.00    +0.000 A 
ATOM     10  C   UNL     1      -7.179  -0.451  -1.107  0.00  0.00    +0.000 A 
ATOM     11  O   UNL     1      -7.476  -0.818  -2.362  0.00  0.00    +0.000 OA
ATOM     12  N   UNL     1      -7.598  -2.017  -2.460  0.00  0.00    +0.000 NA
ATOM     13  C   UNL     1      -7.400  -2.614  -1.315  0.00  0.00    +0.000 A 
ATOM     14  C   UNL     1      -6.960   0.954  -0.607  0.00  0.00    +0.000 C 
BRANCH  13  15
ATOM     15  O   UNL     1      -7.459  -3.948  -1.071  0.00  0.00    +0.000 OA
ATOM     16  H   UNL     1      -8.108  -3.989  -0.325  0.00  0.00    +0.000 HD
ENDBRANCH  13  15
ENDBRANCH   8   9
ENDBRANCH   6   8
BRANCH   3  17
ATOM     17  C   UNL     1      -1.845  -0.829   1.436  0.00  0.00    +0.000 C 
BRANCH  17  18
ATOM     18  CA  UNL     1      -1.293  -0.775   0.010  0.00  0.00    +0.000 C 
BRANCH  18  19
ATOM     19  N   UNL     1      -1.052  -2.141  -0.473  0.00  0.00    +0.000 N 
ATOM     20  H1  UNL     1      -1.936  -2.669  -0.468  0.00  0.00    +0.000 HD
ATOM     21  H2  UNL     1      -0.370  -2.609   0.141  0.00  0.00    +0.000 HD
ATOM     22  H3  UNL     1      -0.680  -2.106  -1.433  0.00  0.00    +0.000 HD
ENDBRANCH  18  19
BRANCH  18  23
ATOM     23  C   UNL     1       0.002  -0.004   0.002  0.00  0.00    +0.000 C 
ATOM     24  O   UNL     1       1.056  -0.594  -0.011  0.00  0.00    +0.000 OA
ATOM     25  OXT UNL     1      -0.016   1.338   0.009  0.00  0.00    +0.000 OA
ENDBRANCH  18  23
ENDBRANCH  17  18
ENDBRANCH   3  17
TORSDOF 7
ENDMDL
MODEL      364
REMARK  Name = ZINC17969353
REMARK  5 active torsions:
REMARK  status: ('A' for Active; 'I' for Inactive)
REMARK    1  A    between atoms: C_5  and  C_6
REMARK    2  A    between atoms: C_5  and  N_17
REMARK    3  A    between atoms: C_6  and  N_19
REMARK    4  A    between atoms: C_7  and  C_8
REMARK    5  A    between atoms: C_11  and  O_15
REMARK                            x       y       z     vdW  Elec       q    Type
REMARK                         _______ _______ _______ _____ _____    ______ ____
ROOT
ATOM      1  C   UNL     1      -0.051   5.042  -1.458  0.00  0.00    +0.000 C 
ATOM      2  N   UNL     1      -0.125   6.266  -0.984  0.00  0.00    +0.000 NA
ENDROOT
BRANCH   1   3
ATOM      3  C   UNL     1      -0.017   3.915  -0.459  0.00  0.00    +0.000 C 
ATOM      4  C   UNL     1       1.278   3.148  -0.655  0.00  0.00    +0.000 C 
ATOM      5  N   UNL     1       1.186   1.870  -0.934  0.00  0.00    +0.000 NA
ATOM      6  C   UNL     1       0.014   1.246  -1.046  0.00  0.00    +0.000 C 
ATOM      7  N   UNL     1      -1.166   1.813  -0.901  0.00  0.00    +0.000 NA
ATOM      8  C   UNL     1      -1.295   3.110  -0.609  0.00  0.00    +0.000 C 
ATOM      9  O   UNL     1      -2.388   3.624  -0.473  0.00  0.00    +0.000 OA
ATOM     10  O   UNL     1       2.471   3.754  -0.548  0.00  0.00    +0.000 OA
BRANCH   6  11
ATOM     11  O   UNL     1       0.037  -0.071  -1.336  0.00  0.00    +0.000 OA
ATOM     12  H   UNL     1       0.573  -0.500  -0.623  0.00  0.00    +0.000 HD
ENDBRANCH   6  11
ENDBRANCH   1   3
BRANCH   2  13
ATOM     13  C   UNL     1      -0.163   7.436  -1.927  0.00  0.00    +0.000 C 
BRANCH  13  14
ATOM     14  C   UNL     1      -1.512   8.140  -1.772  0.00  0.00    +0.000 C 
BRANCH  14  19
ATOM     15  C   UNL     1      -2.890  11.155  -3.562  0.00  0.00    +0.000 C 
ATOM     16  C   UNL     1      -2.907   9.885  -2.707  0.00  0.00    +0.000 C 
ATOM     17  C   UNL     1      -1.061   8.994  -3.993  0.00  0.00    +0.000 C 
ATOM     18  C   UNL     1      -1.044  10.263  -4.848  0.00  0.00    +0.000 C 
ATOM     19  N   UNL     1      -1.536   9.340  -2.637  0.00  0.00    +0.000 NA
ATOM     20  N   UNL     1      -2.404  10.830  -4.917  0.00  0.00    +0.000 N 
ATOM     21  H   UNL     1      -2.388  11.686  -5.489  0.00  0.00    +0.000 HD
ATOM     22  H   UNL     1      -3.038  10.144  -5.352  0.00  0.00    +0.000 HD
ENDBRANCH  14  19
ENDBRANCH  13  14
ENDBRANCH   2  13
TORSDOF 5
ENDMDL
MODEL      365
REMARK  Name = ZINC23960418
REMARK  6 active torsions:
REMARK  status: ('A' for Active; 'I' for Inactive)
REMARK    1  A    between atoms: C_1  and  N_2
REMARK    2  A    between atoms: C_5  and  N_6
REMARK    3  A    between atoms: N_6  and  O_7
REMARK    4  A    between atoms: O_7  and  C_8
REMARK    5  A    between atoms: C_8  and  C_9
REMARK    6  A    between atoms: N_17  and  C_20
REMARK                            x       y       z     vdW  Elec       q    Type
REMARK                         _______ _______ _______ _____ _____    ______ ____
ROOT
ATOM      1  C   UNL     1      -2.328  -0.517  -0.493  0.00  0.00    +0.000 C 
ATOM      2  N   UNL     1      -2.367   0.912  -0.172  0.00  0.00    +0.000 N 
ATOM      3  C   UNL     1      -1.199   1.591   0.056  0.00  0.00    +0.000 A 
ATOM      4  C   UNL     1      -1.263   2.949   0.360  0.00  0.00    +0.000 A 
ATOM      5  C   UNL     1      -0.002   3.675   0.604  0.00  0.00    +0.000 A 
ATOM      6  C   UNL     1       1.246   2.973   0.241  0.00  0.00    +0.000 A 
ATOM      7  C   UNL     1       1.186   1.662  -0.040  0.00  0.00    +0.000 A 
ATOM      8  N   UNL     1       0.007   0.966   0.006  0.00  0.00    +0.000 NA
ATOM      9  C   UNL     1      -2.522   3.590   0.421  0.00  0.00    +0.000 A 
ATOM     10  O   UNL     1      -2.602   4.777   0.683  0.00  0.00    +0.000 OA
ATOM     11  N   UNL     1      -3.634   2.862   0.182  0.00  0.00    +0.000 N 
ATOM     12  C   UNL     1      -3.549   1.552  -0.108  0.00  0.00    +0.000 A 
ATOM     13  O   UNL     1      -4.570   0.927  -0.319  0.00  0.00    +0.000 OA
ATOM     14  C   UNL     1      -4.948   3.506   0.241  0.00  0.00    +0.000 C 
ENDROOT
BRANCH   5  15
ATOM     15  N   UNL     1       0.010   4.884   1.118  0.00  0.00    +0.000 N 
ATOM     16  H   UNL     1       0.819   5.502   0.961  0.00  0.00    +0.000 HD
BRANCH  15  17
ATOM     17  O   UNL     1      -1.088   5.337   1.888  0.00  0.00    +0.000 OA
BRANCH  17  18
ATOM     18  C   UNL     1      -0.940   6.669   2.383  0.00  0.00    +0.000 C 
BRANCH  18  19
ATOM     19  C   UNL     1      -2.160   7.046   3.184  0.00  0.00    +0.000 C 
ATOM     20  O   UNL     1      -3.067   6.252   3.317  0.00  0.00    +0.000 OA
ATOM     21  N   UNL     1      -2.244   8.265   3.752  0.00  0.00    +0.000 N 
ATOM     22  H   UNL     1      -1.474   8.940   3.639  0.00  0.00    +0.000 HD
ATOM     23  H   UNL     1      -3.078   8.523   4.299  0.00  0.00    +0.000 HD
ENDBRANCH  18  19
ENDBRANCH  17  18
ENDBRANCH  15  17
ENDBRANCH   5  15
TORSDOF 4
ENDMDL
MODEL      366
REMARK  Name = ZINC05836090
REMARK  9 active torsions:
REMARK  status: ('A' for Active; 'I' for Inactive)
REMARK    1  A    between atoms: C_1  and  C_2
REMARK    2  A    between atoms: C_2  and  O_3
REMARK    3  A    between atoms: O_3  and  C_4
REMARK    4  A    between atoms: C_4  and  C_6
REMARK    5  A    between atoms: N_9  and  C1*_12
REMARK    6  A    between atoms: C2*_13  and  O2*_20
REMARK    7  A    between atoms: C3*_14  and  O3*_19
REMARK    8  A    between atoms: C4*_15  and  C5*_17
REMARK    9  A    between atoms: C5*_17  and  O5*_18
REMARK                            x       y       z     vdW  Elec       q    Type
REMARK                         _______ _______ _______ _____ _____    ______ ____
ROOT
ATOM      1  C1* UNL     1       1.217   3.397   0.500  0.00  0.00    +0.000 C 
ATOM      2  C2* UNL     1       0.198   3.308   1.657  0.00  0.00    +0.000 C 
ATOM      3  C3* UNL     1      -0.634   2.048   1.328  0.00  0.00    +0.000 C 
ATOM      4  C4* UNL     1      -0.019   1.526   0.010  0.00  0.00    +0.000 C 
ATOM      5  O4* UNL     1       1.328   2.047   0.000  0.00  0.00    +0.000 OA
ENDROOT
BRANCH   1   9
ATOM      6  C   UNL     1       4.499   4.922   1.241  0.00  0.00    +0.000 A 
ATOM      7  C   UNL     1       4.311   4.088   2.327  0.00  0.00    +0.000 A 
ATOM      8  N   UNL     1       3.127   3.463   2.186  0.00  0.00    +0.000 NA
ATOM      9  N   UNL     1       2.514   3.866   0.995  0.00  0.00    +0.000 N 
ATOM     10  C   UNL     1       3.314   4.763   0.382  0.00  0.00    +0.000 A 
ATOM     11  O   UNL     1       3.099   5.329  -0.673  0.00  0.00    +0.000 OA
BRANCH   6  12
ATOM     12  C   UNL     1       5.651   5.794   0.994  0.00  0.00    +0.000 C 
ATOM     13  O   UNL     1       6.569   5.830   1.791  0.00  0.00    +0.000 OA
BRANCH  12  14
ATOM     14  O   UNL     1       5.694   6.556  -0.118  0.00  0.00    +0.000 OA
BRANCH  14  16
ATOM     15  C   UNL     1       6.735   8.180  -1.604  0.00  0.00    +0.000 C 
ATOM     16  C   UNL     1       6.865   7.395  -0.298  0.00  0.00    +0.000 C 
ENDBRANCH  14  16
ENDBRANCH  12  14
ENDBRANCH   6  12
ENDBRANCH   1   9
BRANCH   3  17
ATOM     17  O3* UNL     1      -0.499   1.074   2.364  0.00  0.00    +0.000 OA
ATOM     18  H3* UNL     1      -0.815   1.464   3.218  0.00  0.00    +0.000 HD
ENDBRANCH   3  17
BRANCH   2  19
ATOM     19  O2* UNL     1      -0.637   4.467   1.680  0.00  0.00    +0.000 OA
ATOM     20  H2* UNL     1      -1.120   4.535   0.818  0.00  0.00    +0.000 HD
ENDBRANCH   2  19
BRANCH   4  21
ATOM     21  C5* UNL     1       0.002  -0.004   0.002  0.00  0.00    +0.000 C 
BRANCH  21  22
ATOM     22  O5* UNL     1       0.535  -0.466  -1.241  0.00  0.00    +0.000 OA
ATOM     23  H5* UNL     1       1.457  -0.124  -1.353  0.00  0.00    +0.000 HD
ENDBRANCH  21  22
ENDBRANCH   4  21
TORSDOF 8
ENDMDL
MODEL      367
REMARK  Name = ZINC17013829
REMARK  6 active torsions:
REMARK  status: ('A' for Active; 'I' for Inactive)
REMARK    1  A    between atoms: C_2  and  N_16
REMARK    2  A    between atoms: N_8  and  C_9
REMARK    3  A    between atoms: C_9  and  C_10
REMARK    4  A    between atoms: N_11  and  N_12
REMARK    5  A    between atoms: N_12  and  C_13
REMARK    6  A    between atoms: C_13  and  N_15
REMARK                            x       y       z     vdW  Elec       q    Type
REMARK                         _______ _______ _______ _____ _____    ______ ____
ROOT
ATOM      1  C   UNL     1      -1.839  -1.289  -2.323  0.00  0.00    +0.000 A 
ATOM      2  C   UNL     1      -1.858  -2.139  -3.371  0.00  0.00    +0.000 A 
ATOM      3  C   UNL     1      -1.344  -3.448  -3.205  0.00  0.00    +0.000 A 
ATOM      4  O   UNL     1      -1.355  -4.235  -4.135  0.00  0.00    +0.000 OA
ATOM      5  N   UNL     1      -0.844  -3.816  -2.009  0.00  0.00    +0.000 NA
ATOM      6  C   UNL     1      -0.833  -2.946  -0.982  0.00  0.00    +0.000 A 
ATOM      7  O   UNL     1      -0.378  -3.292   0.092  0.00  0.00    +0.000 OA
ATOM      8  N   UNL     1      -1.318  -1.700  -1.126  0.00  0.00    +0.000 N 
ENDROOT
BRANCH   2   9
ATOM      9  N   UNL     1      -2.413  -1.711  -4.675  0.00  0.00    +0.000 N 
ATOM     10  O   UNL     1      -2.853  -0.583  -4.808  0.00  0.00    +0.000 OA
ATOM     11  O   UNL     1      -2.430  -2.486  -5.614  0.00  0.00    +0.000 OA
ENDBRANCH   2   9
BRANCH   8  12
ATOM     12  C   UNL     1      -1.293  -0.775   0.010  0.00  0.00    +0.000 C 
BRANCH  12  13
ATOM     13  C   UNL     1       0.002  -0.004   0.002  0.00  0.00    +0.000 C 
ATOM     14  N   UNL     1      -0.015   1.276   0.009  0.00  0.00    +0.000 NA
BRANCH  14  15
ATOM     15  N   UNL     1       1.188   1.993   0.001  0.00  0.00    +0.000 N 
ATOM     16  H   UNL     1       2.087   1.490  -0.010  0.00  0.00    +0.000 HD
BRANCH  15  17
ATOM     17  C   UNL     1       1.170   3.341   0.009  0.00  0.00    +0.000 C 
ATOM     18  S   UNL     1       2.641   4.217  -0.001  0.00  0.00    +0.000 S 
BRANCH  17  19
ATOM     19  N   UNL     1      -0.006   3.998   0.024  0.00  0.00    +0.000 N 
ATOM     20  H   UNL     1      -0.891   3.471   0.029  0.00  0.00    +0.000 HD
ATOM     21  H   UNL     1      -0.020   5.028   0.029  0.00  0.00    +0.000 HD
ENDBRANCH  17  19
ENDBRANCH  15  17
ENDBRANCH  14  15
ENDBRANCH  12  13
ENDBRANCH   8  12
TORSDOF 6
ENDMDL
MODEL      368
REMARK  Name = ZINC12504086
REMARK  6 active torsions:
REMARK  status: ('A' for Active; 'I' for Inactive)
REMARK    1  A    between atoms: C_2  and  C_6
REMARK    2  A    between atoms: C_6  and  C_7
REMARK    3  A    between atoms: C_7  and  C_8
REMARK    4  A    between atoms: C_7  and  N_14
REMARK    5  A    between atoms: C_8  and  O_9
REMARK    6  A    between atoms: O_9  and  P_10
REMARK                            x       y       z     vdW  Elec       q    Type
REMARK                         _______ _______ _______ _____ _____    ______ ____
ROOT
ATOM      1  C   UNL     1       0.002  -0.004   0.002  0.00  0.00    +0.000 C 
ENDROOT
BRANCH   1   2
ATOM      2  N   UNL     1      -0.029   1.469   0.032  0.00  0.00    +0.000 N 
ATOM      3  H   UNL     1      -0.446   1.790   0.918  0.00  0.00    +0.000 HD
ATOM      4  H   UNL     1      -0.587   1.822  -0.759  0.00  0.00    +0.000 HD
ATOM      5  H   UNL     1       0.932   1.831  -0.042  0.00  0.00    +0.000 HD
ENDBRANCH   1   2
BRANCH   1   6
ATOM      6  C   UNL     1      -1.429  -0.534   0.112  0.00  0.00    +0.000 C 
BRANCH   6   8
ATOM      7  C   UNL     1      -3.392  -0.463   1.978  0.00  0.00    +0.000 C 
ATOM      8  C   UNL     1      -2.005  -0.151   1.451  0.00  0.00    +0.000 C 
ATOM      9  N   UNL     1      -1.422   0.521   2.393  0.00  0.00    +0.000 NA
ATOM     10  C   UNL     1      -2.223   0.691   3.467  0.00  0.00    +0.000 C 
ATOM     11  N   UNL     1      -3.388   0.150   3.319  0.00  0.00    +0.000 NA
ENDBRANCH   6   8
ENDBRANCH   1   6
BRANCH   1  12
ATOM     12  C   UNL     1       0.630  -0.498  -1.303  0.00  0.00    +0.000 C 
BRANCH  12  13
ATOM     13  O   UNL     1       2.002  -0.102  -1.351  0.00  0.00    +0.000 OA
BRANCH  13  14
ATOM     14  P   UNL     1       2.973  -0.453  -2.587  0.00  0.00    +0.000 P 
ATOM     15  O   UNL     1       2.969  -1.915  -2.817  0.00  0.00    +0.000 OA
ATOM     16  O   UNL     1       2.452   0.300  -3.910  0.00  0.00    +0.000 OA
ATOM     17  O   UNL     1       4.470   0.032  -2.247  0.00  0.00    +0.000 OA
ENDBRANCH  13  14
ENDBRANCH  12  13
ENDBRANCH   1  12
TORSDOF 6
ENDMDL
MODEL      369
REMARK  Name = ZINC26173960
REMARK  7 active torsions:
REMARK  status: ('A' for Active; 'I' for Inactive)
REMARK    1  A    between atoms: C_1  and  C_2
REMARK    2  A    between atoms: N_9  and  C_12
REMARK    3  A    between atoms: C_12  and  C_13
REMARK    4  A    between atoms: C_13  and  O_14
REMARK    5  A    between atoms: O_14  and  C_15
REMARK    6  A    between atoms: C_15  and  P_16
REMARK    7  A    between atoms: P_16  and  O_19
REMARK                            x       y       z     vdW  Elec       q    Type
REMARK                         _______ _______ _______ _____ _____    ______ ____
ROOT
ATOM      1  C   UNL     1      -1.247  -6.617   1.049  0.00  0.00    +0.000 C 
ATOM      2  C   UNL     1      -1.221  -5.186   1.520  0.00  0.00    +0.000 A 
ATOM      3  C   UNL     1      -1.325  -4.134   0.608  0.00  0.00    +0.000 A 
ATOM      4  C   UNL     1      -1.296  -2.815   1.101  0.00  0.00    +0.000 A 
ATOM      5  N   UNL     1      -1.172  -2.617   2.407  0.00  0.00    +0.000 NA
ATOM      6  C   UNL     1      -1.076  -3.646   3.234  0.00  0.00    +0.000 A 
ATOM      7  N   UNL     1      -1.100  -4.902   2.805  0.00  0.00    +0.000 NA
ATOM      8  N   UNL     1      -0.947  -3.404   4.592  0.00  0.00    +0.000 N 
ATOM      9  N   UNL     1      -1.413  -1.998   0.005  0.00  0.00    +0.000 N 
ATOM     10  C   UNL     1      -1.515  -2.801  -1.093  0.00  0.00    +0.000 A 
ATOM     11  N   UNL     1      -1.457  -4.051  -0.740  0.00  0.00    +0.000 NA
ATOM     12  H   UNL     1      -0.926  -2.441   4.956  0.00  0.00    +0.000 HD
ATOM     13  H   UNL     1      -0.872  -4.198   5.243  0.00  0.00    +0.000 HD
ENDROOT
BRANCH   9  14
ATOM     14  C   UNL     1      -1.433  -0.534   0.013  0.00  0.00    +0.000 C 
BRANCH  14  15
ATOM     15  C   UNL     1       0.002  -0.004   0.002  0.00  0.00    +0.000 C 
BRANCH  15  16
ATOM     16  O   UNL     1      -0.017   1.425   0.010  0.00  0.00    +0.000 OA
BRANCH  16  17
ATOM     17  C   UNL     1       1.280   2.024   0.001  0.00  0.00    +0.000 C 
BRANCH  17  18
ATOM     18  P   UNL     1       2.002   1.883  -1.667  0.00  0.00    +0.000 P 
ATOM     19  O   UNL     1       1.132   2.578  -2.642  0.00  0.00    +0.000 OA
ATOM     20  O   UNL     1       3.464   2.558  -1.677  0.00  0.00    +0.000 OA
BRANCH  18  21
ATOM     21  O   UNL     1       2.126   0.329  -2.070  0.00  0.00    +0.000 OA
ATOM     22  H   UNL     1       1.227  -0.086  -2.064  0.00  0.00    +0.000 HD
ENDBRANCH  18  21
ENDBRANCH  17  18
ENDBRANCH  16  17
ENDBRANCH  15  16
ENDBRANCH  14  15
ENDBRANCH   9  14
TORSDOF 6
ENDMDL
MODEL      370
REMARK  Name = ZINC20842746
REMARK  8 active torsions:
REMARK  status: ('A' for Active; 'I' for Inactive)
REMARK    1  A    between atoms: C_1  and  C_2
REMARK    2  A    between atoms: C_5  and  S_8
REMARK    3  A    between atoms: N_6  and  N_7
REMARK    4  A    between atoms: S_8  and  C_9
REMARK    5  A    between atoms: C_9  and  C_10
REMARK    6  A    between atoms: N_12  and  N_13
REMARK    7  A    between atoms: N_13  and  C_14
REMARK    8  A    between atoms: C_14  and  C_16
REMARK                            x       y       z     vdW  Elec       q    Type
REMARK                         _______ _______ _______ _____ _____    ______ ____
ROOT
ATOM      1  C   UNL     1       3.742  -1.632  -0.042  0.00  0.00    +0.000 C 
ENDROOT
BRANCH   1   2
ATOM      2  C   UNL     1       4.518  -2.924  -0.057  0.00  0.00    +0.000 C 
ATOM      3  O   UNL     1       3.930  -3.985  -0.057  0.00  0.00    +0.000 OA
ATOM      4  N   UNL     1       5.866  -2.900  -0.070  0.00  0.00    +0.000 N 
ATOM      5  H   UNL     1       6.365  -1.999  -0.069  0.00  0.00    +0.000 HD
BRANCH   4   6
ATOM      6  N   UNL     1       6.588  -4.100  -0.083  0.00  0.00    +0.000 NA
BRANCH   6   7
ATOM      7  C   UNL     1       7.935  -4.076  -0.096  0.00  0.00    +0.000 C 
ATOM      8  O   UNL     1       8.523  -3.015  -0.096  0.00  0.00    +0.000 OA
BRANCH   7   9
ATOM      9  C   UNL     1       8.712  -5.368  -0.110  0.00  0.00    +0.000 C 
ATOM     10  F   UNL     1      10.082  -5.088  -0.121  0.00  0.00    +0.000 F 
ATOM     11  F   UNL     1       8.398  -6.114   1.031  0.00  0.00    +0.000 F 
ATOM     12  F   UNL     1       8.376  -6.101  -1.253  0.00  0.00    +0.000 F 
ENDBRANCH   7   9
ENDBRANCH   6   7
ENDBRANCH   4   6
ENDBRANCH   1   2
BRANCH   1  13
ATOM     13  S   UNL     1       1.968  -1.995  -0.027  0.00  0.00    +0.000 S 
BRANCH  13  18
ATOM     14  C   UNL     1      -1.242   2.240   0.020  0.00  0.00    +0.000 C 
ATOM     15  C   UNL     1      -0.017   1.363   0.009  0.00  0.00    +0.000 A 
ATOM     16  N   UNL     1       1.222   1.768  -0.000  0.00  0.00    +0.000 NA
ATOM     17  N   UNL     1       2.016   0.758  -0.013  0.00  0.00    +0.000 NA
ATOM     18  C   UNL     1       1.321  -0.356  -0.013  0.00  0.00    +0.000 A 
ATOM     19  N   UNL     1       0.002  -0.004   0.002  0.00  0.00    +0.000 N 
BRANCH  19  20
ATOM     20  N   UNL     1      -1.075  -0.844   0.008  0.00  0.00    +0.000 N 
ATOM     21  H   UNL     1      -1.992  -0.373   0.020  0.00  0.00    +0.000 HD
ATOM     22  H   UNL     1      -0.999  -1.871   0.002  0.00  0.00    +0.000 HD
ENDBRANCH  19  20
ENDBRANCH  13  18
ENDBRANCH   1  13
TORSDOF 7
ENDMDL
MODEL      371
REMARK  Name = ZINC04838304
REMARK  4 active torsions:
REMARK  status: ('A' for Active; 'I' for Inactive)
REMARK    1  A    between atoms: C_6  and  C_7
REMARK    2  A    between atoms: C_6  and  N_18
REMARK    3  A    between atoms: C_7  and  O_8
REMARK    4  A    between atoms: C_9  and  C_12
REMARK                            x       y       z     vdW  Elec       q    Type
REMARK                         _______ _______ _______ _____ _____    ______ ____
ROOT
ATOM      1  C   UNL     1       0.375  -1.468   1.654  0.00  0.00    +0.000 C 
ATOM      2  C   UNL     1      -0.400  -0.984   0.424  0.00  0.00    +0.000 C 
ATOM      3  N   UNL     1       0.536  -0.299  -0.479  0.00  0.00    +0.000 N 
ATOM      4  C   UNL     1       1.775  -0.997  -0.856  0.00  0.00    +0.000 C 
ATOM      5  C   UNL     1       2.468  -1.478   0.429  0.00  0.00    +0.000 C 
ATOM      6  C   UNL     1       0.257   0.967  -0.966  0.00  0.00    +0.000 C 
ATOM      7  N   UNL     1      -0.977   1.340  -1.135  0.00  0.00    +0.000 NA
ATOM      8  O   UNL     1      -2.031   0.417  -0.930  0.00  0.00    +0.000 OA
ATOM      9  N   UNL     1       1.512  -2.300   1.202  0.00  0.00    +0.000 NA
ENDROOT
BRANCH   6  10
ATOM     10  C   UNL     1       1.363   1.893  -1.300  0.00  0.00    +0.000 A 
ATOM     11  C   UNL     1       1.291   3.247  -1.895  0.00  0.00    +0.000 A 
ATOM     12  N   UNL     1       2.554   3.596  -1.965  0.00  0.00    +0.000 NA
ATOM     13  O   UNL     1       3.244   2.700  -1.539  0.00  0.00    +0.000 OA
ATOM     14  N   UNL     1       2.658   1.717  -1.149  0.00  0.00    +0.000 NA
ATOM     15  N   UNL     1       0.168   3.969  -2.279  0.00  0.00    +0.000 N 
ATOM     16  H   UNL     1      -0.717   3.468  -2.116  0.00  0.00    +0.000 HD
ATOM     17  H   UNL     1       0.189   4.913  -2.689  0.00  0.00    +0.000 HD
ENDBRANCH   6  10
BRANCH   9  18
ATOM     18  C   UNL     1       2.192  -2.901   2.368  0.00  0.00    +0.000 C 
BRANCH  18  19
ATOM     19  C   UNL     1       1.363  -4.091   2.856  0.00  0.00    +0.000 C 
BRANCH  19  20
ATOM     20  O   UNL     1       1.297  -5.080   1.827  0.00  0.00    +0.000 OA
ATOM     21  H   UNL     1       2.212  -5.386   1.603  0.00  0.00    +0.000 HD
ENDBRANCH  19  20
ENDBRANCH  18  19
ENDBRANCH   9  18
TORSDOF 4
ENDMDL
MODEL      372
REMARK  Name = ZINC00056015
REMARK  4 active torsions:
REMARK  status: ('A' for Active; 'I' for Inactive)
REMARK    1  A    between atoms: C_3  and  C_6
REMARK    2  A    between atoms: N_7  and  N_8
REMARK    3  A    between atoms: C_9  and  C_11
REMARK    4  A    between atoms: C_11  and  N_12
REMARK                            x       y       z     vdW  Elec       q    Type
REMARK                         _______ _______ _______ _____ _____    ______ ____
ROOT
ATOM      1  C   UNL     1       1.248   1.716  -0.001  0.00  0.00    +0.000 C 
ENDROOT
BRANCH   1   2
ATOM      2  N   UNL     1      -0.011   0.966   0.007  0.00  0.00    +0.000 N 
ATOM      3  C   UNL     1      -1.229   1.647   0.017  0.00  0.00    +0.000 A 
ATOM      4  C   UNL     1      -2.500   0.905   0.019  0.00  0.00    +0.000 A 
ATOM      5  O   UNL     1      -2.505  -0.311   0.012  0.00  0.00    +0.000 OA
ATOM      6  N   UNL     1      -3.661   1.593   0.029  0.00  0.00    +0.000 N 
ATOM      7  C   UNL     1      -3.647   2.939   0.036  0.00  0.00    +0.000 A 
ATOM      8  O   UNL     1      -4.700   3.548   0.044  0.00  0.00    +0.000 OA
ATOM      9  N   UNL     1      -2.489   3.622   0.034  0.00  0.00    +0.000 N 
ATOM     10  N   UNL     1      -1.258   2.954   0.030  0.00  0.00    +0.000 NA
ATOM     11  H   UNL     1       0.003  -0.064   0.006  0.00  0.00    +0.000 HD
ATOM     12  H   UNL     1      -4.559   1.088   0.030  0.00  0.00    +0.000 HD
ATOM     13  H   UNL     1      -2.507   4.652   0.036  0.00  0.00    +0.000 HD
ENDBRANCH   1   2
BRANCH   1  15
ATOM     14  N   UNL     1       3.671   1.218  -0.026  0.00  0.00    +0.000 N 
ATOM     15  C   UNL     1       2.406   0.752  -0.017  0.00  0.00    +0.000 C 
ATOM     16  O   UNL     1       2.201  -0.444  -0.021  0.00  0.00    +0.000 OA
ATOM     17  H   UNL     1       3.845   2.233  -0.023  0.00  0.00    +0.000 HD
BRANCH  14  19
ATOM     18  C   UNL     1       5.968   0.773  -0.051  0.00  0.00    +0.000 C 
ATOM     19  N   UNL     1       4.748   0.323  -0.042  0.00  0.00    +0.000 NA
BRANCH  18  22
ATOM     20  C   UNL     1       9.142  -1.034  -0.091  0.00  0.00    +0.000 A 
ATOM     21  C   UNL     1       8.418   0.172  -0.077  0.00  0.00    +0.000 A 
ATOM     22  C   UNL     1       7.095  -0.165  -0.067  0.00  0.00    +0.000 A 
ATOM     23  O   UNL     1       7.006  -1.510  -0.067  0.00  0.00    +0.000 OA
ATOM     24  C   UNL     1       8.241  -2.038  -0.088  0.00  0.00    +0.000 A 
ENDBRANCH  18  22
ENDBRANCH  14  19
ENDBRANCH   1  15
TORSDOF 4
ENDMDL
MODEL      373
REMARK  Name = ZINC04795127
REMARK  7 active torsions:
REMARK  status: ('A' for Active; 'I' for Inactive)
REMARK    1  A    between atoms: C_1  and  C_2
REMARK    2  A    between atoms: C_2  and  C_3
REMARK    3  A    between atoms: C_3  and  CA_4
REMARK    4  A    between atoms: CA_4  and  C_5
REMARK    5  A    between atoms: CA_4  and  N_16
REMARK    6  A    between atoms: C_7  and  N_16
REMARK    7  A    between atoms: C_13  and  O_14
REMARK                            x       y       z     vdW  Elec       q    Type
REMARK                         _______ _______ _______ _____ _____    ______ ____
ROOT
ATOM      1  N   UNL     1      -2.438   0.967   0.028  0.00  0.00    +0.000 N 
ATOM      2  H1  UNL     1      -2.166   0.144   0.585  0.00  0.00    +0.000 HD
ATOM      3  H2  UNL     1      -3.271   1.400   0.451  0.00  0.00    +0.000 HD
ENDROOT
BRANCH   1   4
ATOM      4  C   UNL     1      -2.756   0.540  -1.348  0.00  0.00    +0.000 C 
ATOM      5  C   UNL     1      -1.802  -0.615  -1.763  0.00  0.00    +0.000 C 
ATOM      6  S   UNL     1      -2.789  -1.349  -3.141  0.00  0.00    +0.000 S 
ATOM      7  O   UNL     1      -2.576  -2.753  -3.171  0.00  0.00    +0.000 OA
ATOM      8  O   UNL     1      -2.588  -0.582  -4.320  0.00  0.00    +0.000 OA
ATOM      9  C   UNL     1      -4.470  -1.004  -2.473  0.00  0.00    +0.000 C 
ATOM     10  C   UNL     1      -4.209   0.071  -1.401  0.00  0.00    +0.000 C 
BRANCH  10  11
ATOM     11  O   UNL     1      -5.044   1.198  -1.675  0.00  0.00    +0.000 OA
ATOM     12  H   UNL     1      -4.796   1.597  -2.546  0.00  0.00    +0.000 HD
ENDBRANCH  10  11
ENDBRANCH   1   4
BRANCH   1  13
ATOM     13  CA  UNL     1      -1.329   1.940   0.019  0.00  0.00    +0.000 C 
BRANCH  13  14
ATOM     14  C   UNL     1      -0.014   1.204   0.009  0.00  0.00    +0.000 C 
ATOM     15  O   UNL     1       0.002  -0.004   0.002  0.00  0.00    +0.000 OA
ATOM     16  OXT UNL     1       1.139   1.891   0.001  0.00  0.00    +0.000 OA
ENDBRANCH  13  14
BRANCH  13  17
ATOM     17  C   UNL     1      -1.417   2.811   1.273  0.00  0.00    +0.000 C 
BRANCH  17  19
ATOM     18  C   UNL     1      -2.781   4.524   2.477  0.00  0.00    +0.000 C 
ATOM     19  C   UNL     1      -2.694   3.652   1.223  0.00  0.00    +0.000 C 
ENDBRANCH  17  19
ENDBRANCH  13  17
ENDBRANCH   1  13
TORSDOF 6
ENDMDL
MODEL      374
REMARK  Name = ZINC00389806
REMARK  6 active torsions:
REMARK  status: ('A' for Active; 'I' for Inactive)
REMARK    1  A    between atoms: C_3  and  O_13
REMARK    2  A    between atoms: C_4  and  C_9
REMARK    3  A    between atoms: C_6  and  C_7
REMARK    4  A    between atoms: C_9  and  N_15
REMARK    5  A    between atoms: C_10  and  C_11
REMARK    6  A    between atoms: C_10  and  N_15
REMARK                            x       y       z     vdW  Elec       q    Type
REMARK                         _______ _______ _______ _____ _____    ______ ____
ROOT
ATOM      1  C   UNL     1      -1.215   1.747   0.017  0.00  0.00    +0.000 A 
ATOM      2  C   UNL     1      -0.013   1.076   0.008  0.00  0.00    +0.000 A 
ATOM      3  C   UNL     1       1.182   1.786   0.000  0.00  0.00    +0.000 A 
ATOM      4  C   UNL     1       1.169   3.176   0.007  0.00  0.00    +0.000 A 
ATOM      5  C   UNL     1      -0.029   3.855   0.023  0.00  0.00    +0.000 A 
ATOM      6  C   UNL     1      -1.233   3.145   0.031  0.00  0.00    +0.000 A 
ENDROOT
BRANCH   6   7
ATOM      7  C   UNL     1      -2.518   3.868   0.048  0.00  0.00    +0.000 C 
ATOM      8  O   UNL     1      -2.531   5.083   0.054  0.00  0.00    +0.000 OA
ATOM      9  O   UNL     1      -3.677   3.181   0.056  0.00  0.00    +0.000 OA
ENDBRANCH   6   7
BRANCH   3  10
ATOM     10  O   UNL     1       2.365   1.121  -0.015  0.00  0.00    +0.000 OA
ATOM     11  H   UNL     1       2.320   0.538  -0.814  0.00  0.00    +0.000 HD
ENDBRANCH   3  10
BRANCH   4  12
ATOM     12  C   UNL     1       2.467   3.941  -0.001  0.00  0.00    +0.000 C 
BRANCH  12  13
ATOM     13  N   UNL     1       3.080   3.869   1.339  0.00  0.00    +0.000 N 
ATOM     14  H   UNL     1       2.436   4.278   2.031  0.00  0.00    +0.000 HD
ATOM     15  H   UNL     1       3.255   2.884   1.582  0.00  0.00    +0.000 HD
BRANCH  13  16
ATOM     16  C   UNL     1       4.355   4.611   1.359  0.00  0.00    +0.000 C 
BRANCH  16  17
ATOM     17  C   UNL     1       4.957   4.519   2.738  0.00  0.00    +0.000 C 
ATOM     18  O   UNL     1       4.386   3.904   3.607  0.00  0.00    +0.000 OA
ATOM     19  O   UNL     1       6.127   5.122   3.001  0.00  0.00    +0.000 OA
ENDBRANCH  16  17
ENDBRANCH  13  16
ENDBRANCH  12  13
ENDBRANCH   4  12
TORSDOF 6
ENDMDL
MODEL      375
REMARK  Name = ZINC25787764
REMARK  7 active torsions:
REMARK  status: ('A' for Active; 'I' for Inactive)
REMARK    1  A    between atoms: C_1  and  N_2
REMARK    2  A    between atoms: C_6  and  C_8
REMARK    3  A    between atoms: C_8  and  N_9
REMARK    4  A    between atoms: C_15  and  C_16
REMARK    5  A    between atoms: C_16  and  C_17
REMARK    6  A    between atoms: C_17  and  O_19
REMARK    7  A    between atoms: O_19  and  C_20
REMARK                            x       y       z     vdW  Elec       q    Type
REMARK                         _______ _______ _______ _____ _____    ______ ____
ROOT
ATOM      1  N   UNL     1      -0.426   1.353   7.165  0.00  0.00    +0.000 NA
ATOM      2  C   UNL     1      -0.626  -0.095   7.338  0.00  0.00    +0.000 C 
ATOM      3  C   UNL     1       0.408  -0.618   8.337  0.00  0.00    +0.000 C 
ATOM      4  N   UNL     1       0.403   0.208   9.541  0.00  0.00    +0.000 N 
ATOM      5  C   UNL     1      -0.126   1.435   9.579  0.00  0.00    +0.000 C 
ATOM      6  O   UNL     1      -0.060   2.065  10.613  0.00  0.00    +0.000 OA
ATOM      7  C   UNL     1      -0.799   2.067   8.393  0.00  0.00    +0.000 C 
ATOM      8  H   UNL     1       0.825  -0.172  10.400  0.00  0.00    +0.000 HD
ENDROOT
BRANCH   1   9
ATOM      9  C   UNL     1      -1.186   1.855   6.012  0.00  0.00    +0.000 C 
BRANCH   9  15
ATOM     10  C   UNL     1      -0.332   1.253  -0.027  0.00  0.00    +0.000 C 
ATOM     11  N   UNL     1      -0.978   1.691   1.212  0.00  0.00    +0.000 N 
ATOM     12  C   UNL     1      -0.453   1.346   2.404  0.00  0.00    +0.000 C 
ATOM     13  O   UNL     1       0.557   0.671   2.451  0.00  0.00    +0.000 OA
ATOM     14  N   UNL     1      -1.047   1.749   3.545  0.00  0.00    +0.000 N 
ATOM     15  C   UNL     1      -0.522   1.404   4.737  0.00  0.00    +0.000 C 
ATOM     16  O   UNL     1       0.485   0.731   4.784  0.00  0.00    +0.000 OA
ATOM     17  H   UNL     1      -1.834   2.263   1.173  0.00  0.00    +0.000 HD
ATOM     18  H   UNL     1      -1.903   2.321   3.505  0.00  0.00    +0.000 HD
ENDBRANCH   9  15
ENDBRANCH   1   9
BRANCH   7  19
ATOM     19  C   UNL     1      -0.365   3.530   8.282  0.00  0.00    +0.000 C 
BRANCH  19  20
ATOM     20  C   UNL     1       1.120   3.596   8.037  0.00  0.00    +0.000 C 
ATOM     21  O   UNL     1       1.750   2.579   7.866  0.00  0.00    +0.000 OA
BRANCH  20  22
ATOM     22  O   UNL     1       1.744   4.784   8.007  0.00  0.00    +0.000 OA
ATOM     23  C   UNL     1       3.175   4.772   7.765  0.00  0.00    +0.000 C 
ENDBRANCH  20  22
ENDBRANCH  19  20
ENDBRANCH   7  19
TORSDOF 5
ENDMDL
MODEL      376
REMARK  Name = ZINC05964461
REMARK  6 active torsions:
REMARK  status: ('A' for Active; 'I' for Inactive)
REMARK    1  A    between atoms: C_1  and  C_2
REMARK    2  A    between atoms: N_4  and  C_10
REMARK    3  A    between atoms: C_8  and  O_9
REMARK    4  A    between atoms: C_12  and  N_19
REMARK    5  A    between atoms: C_13  and  C_15
REMARK    6  A    between atoms: C_15  and  N_16
REMARK                            x       y       z     vdW  Elec       q    Type
REMARK                         _______ _______ _______ _____ _____    ______ ____
ROOT
ATOM      1  C   UNL     1      -1.587   2.797   0.638  0.00  0.00    +0.000 C 
ATOM      2  C   UNL     1      -0.788   1.610   1.241  0.00  0.00    +0.000 C 
ATOM      3  C   UNL     1      -0.013   1.086   0.008  0.00  0.00    +0.000 C 
ATOM      4  C   UNL     1      -0.808   1.621  -1.198  0.00  0.00    +0.000 C 
ATOM      5  O   UNL     1      -1.946   2.329  -0.680  0.00  0.00    +0.000 OA
ENDROOT
BRANCH   1   9
ATOM      6  C   UNL     1      -4.100   5.993   3.385  0.00  0.00    +0.000 C 
ATOM      7  C   UNL     1      -3.970   4.633   2.748  0.00  0.00    +0.000 C 
ATOM      8  C   UNL     1      -2.913   4.322   2.020  0.00  0.00    +0.000 C 
ATOM      9  N   UNL     1      -2.787   3.073   1.432  0.00  0.00    +0.000 N 
ATOM     10  C   UNL     1      -3.708   2.107   1.549  0.00  0.00    +0.000 C 
ATOM     11  O   UNL     1      -3.521   1.041   0.995  0.00  0.00    +0.000 OA
ATOM     12  N   UNL     1      -4.835   2.284   2.268  0.00  0.00    +0.000 N 
ATOM     13  C   UNL     1      -5.048   3.584   2.926  0.00  0.00    +0.000 C 
ATOM     14  H   UNL     1      -5.530   1.528   2.354  0.00  0.00    +0.000 HD
BRANCH  13  15
ATOM     15  O   UNL     1      -5.204   3.347   4.326  0.00  0.00    +0.000 OA
ATOM     16  H   UNL     1      -5.479   4.179   4.786  0.00  0.00    +0.000 HD
ENDBRANCH  13  15
ENDBRANCH   1   9
BRANCH   3  17
ATOM     17  N   UNL     1       1.353   1.616  -0.002  0.00  0.00    +0.000 NA
ATOM     18  N   UNL     1       2.090   1.286   0.779  0.00  0.00    +0.000 NA
ATOM     19  N   UNL     1       2.827   0.955   1.561  0.00  0.00    +0.000 NA
ENDBRANCH   3  17
BRANCH   4  20
ATOM     20  C   UNL     1      -1.275   0.455  -2.073  0.00  0.00    +0.000 C 
BRANCH  20  21
ATOM     21  N   UNL     1      -1.925   0.978  -3.277  0.00  0.00    +0.000 N 
ATOM     22  C   UNL     1      -2.419   0.128  -4.199  0.00  0.00    +0.000 C 
ATOM     23  O   UNL     1      -2.324  -1.070  -4.032  0.00  0.00    +0.000 OA
ATOM     24  H   UNL     1      -2.006   1.995  -3.419  0.00  0.00    +0.000 HD
ENDBRANCH  20  21
ENDBRANCH   4  20
TORSDOF 5
ENDMDL
MODEL      377
REMARK  Name = ZINC27208187
REMARK  7 active torsions:
REMARK  status: ('A' for Active; 'I' for Inactive)
REMARK    1  A    between atoms: N_4  and  C_6
REMARK    2  A    between atoms: C_6  and  C_7
REMARK    3  A    between atoms: C_7  and  C_8
REMARK    4  A    between atoms: C_8  and  O_9
REMARK    5  A    between atoms: C_8  and  P_10
REMARK    6  A    between atoms: C_8  and  P_14
REMARK    7  A    between atoms: P_14  and  O_16
REMARK                            x       y       z     vdW  Elec       q    Type
REMARK                         _______ _______ _______ _____ _____    ______ ____
ROOT
ATOM      1  C   UNL     1      -0.037   1.099  -2.490  0.00  0.00    +0.000 C 
ENDROOT
BRANCH   1   2
ATOM      2  P   UNL     1      -0.918   1.703  -3.967  0.00  0.00    +0.000 P 
ATOM      3  O   UNL     1      -0.226   1.226  -5.185  0.00  0.00    +0.000 OA
ATOM      4  O   UNL     1      -2.429   1.146  -3.956  0.00  0.00    +0.000 OA
ATOM      5  O   UNL     1      -0.940   3.313  -3.958  0.00  0.00    +0.000 OA
ENDBRANCH   1   2
BRANCH   1   6
ATOM      6  P   UNL     1       1.674   1.730  -2.503  0.00  0.00    +0.000 P 
ATOM      7  O   UNL     1       1.654   3.210  -2.495  0.00  0.00    +0.000 OA
ATOM      8  O   UNL     1       2.427   1.211  -3.828  0.00  0.00    +0.000 OA
BRANCH   6   9
ATOM      9  O   UNL     1       2.452   1.197  -1.199  0.00  0.00    +0.000 OA
ATOM     10  H   UNL     1       2.467   0.207  -1.204  0.00  0.00    +0.000 HD
ENDBRANCH   6   9
ENDBRANCH   1   6
BRANCH   1  11
ATOM     11  O   UNL     1      -0.017  -0.330  -2.498  0.00  0.00    +0.000 OA
ATOM     12  H   UNL     1      -0.946  -0.673  -2.491  0.00  0.00    +0.000 HD
ENDBRANCH   1  11
BRANCH   1  13
ATOM     13  C   UNL     1      -0.753   1.593  -1.232  0.00  0.00    +0.000 C 
BRANCH  13  14
ATOM     14  C   UNL     1      -0.013   1.086   0.008  0.00  0.00    +0.000 C 
BRANCH  14  18
ATOM     15  C   UNL     1      -2.568   1.293   2.665  0.00  0.00    +0.000 C 
ATOM     16  C   UNL     1      -1.336   0.724   3.406  0.00  0.00    +0.000 C 
ATOM     17  C   UNL     1      -0.162   0.900   2.426  0.00  0.00    +0.000 C 
ATOM     18  N   UNL     1      -0.700   1.560   1.217  0.00  0.00    +0.000 N 
ATOM     19  C   UNL     1      -2.145   1.215   1.177  0.00  0.00    +0.000 C 
ATOM     20  H   UNL     1      -0.558   2.579   1.249  0.00  0.00    +0.000 HD
ENDBRANCH  14  18
ENDBRANCH  13  14
ENDBRANCH   1  13
TORSDOF 7
ENDMDL
MODEL      378
REMARK  Name = ZINC15690560
REMARK  5 active torsions:
REMARK  status: ('A' for Active; 'I' for Inactive)
REMARK    1  A    between atoms: C_7  and  O_8
REMARK    2  A    between atoms: O_8  and  C_9
REMARK    3  A    between atoms: C_9  and  C_11
REMARK    4  A    between atoms: C_11  and  S_12
REMARK    5  A    between atoms: S_12  and  C_13
REMARK                            x       y       z     vdW  Elec       q    Type
REMARK                         _______ _______ _______ _____ _____    ______ ____
ROOT
ATOM      1  C   UNL     1      -5.245   4.527   0.051  0.00  0.00    +0.000 C 
ENDROOT
BRANCH   1   2
ATOM      2  C   UNL     1      -6.004   5.829   0.061  0.00  0.00    +0.000 C 
ATOM      3  O   UNL     1      -5.405   6.878   0.064  0.00  0.00    +0.000 OA
BRANCH   2   4
ATOM      4  O   UNL     1      -7.347   5.823   0.067  0.00  0.00    +0.000 OA
BRANCH   4  11
ATOM      5  C   UNL     1      -8.273   7.552   1.527  0.00  0.00    +0.000 C 
ATOM      6  C   UNL     1      -9.252   8.751   1.548  0.00  0.00    +0.000 C 
ATOM      7  S   UNL     1     -10.237   8.494   0.017  0.00  0.00    +0.000 S 
ATOM      8  O   UNL     1     -10.017   9.587  -0.864  0.00  0.00    +0.000 OA
ATOM      9  O   UNL     1     -11.567   8.142   0.375  0.00  0.00    +0.000 OA
ATOM     10  C   UNL     1      -9.382   7.005  -0.650  0.00  0.00    +0.000 C 
ATOM     11  C   UNL     1      -8.011   7.114   0.077  0.00  0.00    +0.000 C 
ENDBRANCH   4  11
ENDBRANCH   2   4
ENDBRANCH   1   2
BRANCH   1  12
ATOM     12  S   UNL     1      -3.463   4.866   0.044  0.00  0.00    +0.000 S 
BRANCH  12  13
ATOM     13  C   UNL     1      -2.725   3.267   0.032  0.00  0.00    +0.000 A 
ATOM     14  N   UNL     1      -1.384   3.000   0.030  0.00  0.00    +0.000 N 
ATOM     15  C   UNL     1      -1.223   1.644   0.017  0.00  0.00    +0.000 A 
ATOM     16  N   UNL     1      -2.413   1.095   0.020  0.00  0.00    +0.000 NA
ATOM     17  N   UNL     1      -3.365   2.123   0.030  0.00  0.00    +0.000 NA
ATOM     18  N   UNL     1      -0.011   0.966   0.007  0.00  0.00    +0.000 N 
ATOM     19  H   UNL     1      -0.628   3.700   0.038  0.00  0.00    +0.000 HD
ATOM     20  H   UNL     1       0.832   1.557   0.011  0.00  0.00    +0.000 HD
ATOM     21  H   UNL     1       0.057  -0.062  -0.003  0.00  0.00    +0.000 HD
ENDBRANCH  12  13
ENDBRANCH   1  12
TORSDOF 5
ENDMDL
MODEL      379
REMARK  Name = ZINC31946615
REMARK  6 active torsions:
REMARK  status: ('A' for Active; 'I' for Inactive)
REMARK    1  A    between atoms: C_1  and  S_2
REMARK    2  A    between atoms: S_2  and  N_5
REMARK    3  A    between atoms: C_8  and  C_11
REMARK    4  A    between atoms: N_13  and  C_14
REMARK    5  A    between atoms: C_14  and  C_15
REMARK    6  A    between atoms: C_15  and  N_16
REMARK                            x       y       z     vdW  Elec       q    Type
REMARK                         _______ _______ _______ _____ _____    ______ ____
ROOT
ATOM      1  N   UNL     1       0.002  -0.004   0.002  0.00  0.00    +0.000 NA
ATOM      2  C   UNL     1      -0.017   1.380   0.010  0.00  0.00    +0.000 A 
ATOM      3  N   UNL     1      -1.050   2.198   0.018  0.00  0.00    +0.000 NA
ATOM      4  C   UNL     1      -0.883   3.523   0.028  0.00  0.00    +0.000 A 
ATOM      5  C   UNL     1       0.391   4.033   0.019  0.00  0.00    +0.000 A 
ATOM      6  S   UNL     1       1.354   2.527   0.003  0.00  0.00    +0.000 S 
ENDROOT
BRANCH   1   8
ATOM      7  C   UNL     1       2.230  -0.402   1.569  0.00  0.00    +0.000 C 
ATOM      8  S   UNL     1       1.447  -0.812  -0.015  0.00  0.00    +0.000 S 
ATOM      9  O   UNL     1       1.093  -2.188  -0.044  0.00  0.00    +0.000 OA
ATOM     10  O   UNL     1       2.176  -0.230  -1.087  0.00  0.00    +0.000 OA
ENDBRANCH   1   8
BRANCH   4  11
ATOM     11  C   UNL     1      -2.048   4.422   0.043  0.00  0.00    +0.000 C 
ATOM     12  O   UNL     1      -1.885   5.628   0.046  0.00  0.00    +0.000 OA
ATOM     13  N   UNL     1      -3.294   3.910   0.051  0.00  0.00    +0.000 N 
ATOM     14  H   UNL     1      -3.432   2.889   0.048  0.00  0.00    +0.000 HD
BRANCH  13  15
ATOM     15  C   UNL     1      -4.454   4.805   0.066  0.00  0.00    +0.000 C 
BRANCH  15  16
ATOM     16  C   UNL     1      -5.739   3.975   0.074  0.00  0.00    +0.000 C 
BRANCH  16  17
ATOM     17  N   UNL     1      -6.902   4.873   0.088  0.00  0.00    +0.000 N 
ATOM     18  H   UNL     1      -6.886   5.471  -0.750  0.00  0.00    +0.000 HD
ATOM     19  H   UNL     1      -6.870   5.463   0.931  0.00  0.00    +0.000 HD
ATOM     20  H   UNL     1      -7.767   4.314   0.093  0.00  0.00    +0.000 HD
ENDBRANCH  16  17
ENDBRANCH  15  16
ENDBRANCH  13  15
ENDBRANCH   4  11
TORSDOF 5
ENDMDL
MODEL      380
REMARK  Name = ZINC31448830
REMARK  7 active torsions:
REMARK  status: ('A' for Active; 'I' for Inactive)
REMARK    1  A    between atoms: C_1  and  C_2
REMARK    2  A    between atoms: C_2  and  C_20
REMARK    3  A    between atoms: N_5  and  C_9
REMARK    4  A    between atoms: C_9  and  C_10
REMARK    5  A    between atoms: C_10  and  S_11
REMARK    6  A    between atoms: S_11  and  C_12
REMARK    7  A    between atoms: C_16  and  N_18
REMARK                            x       y       z     vdW  Elec       q    Type
REMARK                         _______ _______ _______ _____ _____    ______ ____
ROOT
ATOM      1  C   UNL     1       0.859  -0.290  -1.510  0.00  0.00    +0.000 A 
ATOM      2  N   UNL     1       1.252   0.747  -2.236  0.00  0.00    +0.000 N 
ATOM      3  C   UNL     1       1.907   0.569  -3.381  0.00  0.00    +0.000 A 
ATOM      4  C   UNL     1       2.167  -0.727  -3.818  0.00  0.00    +0.000 A 
ATOM      5  C   UNL     1       1.734  -1.791  -3.032  0.00  0.00    +0.000 A 
ATOM      6  N   UNL     1       1.090  -1.537  -1.896  0.00  0.00    +0.000 NA
ATOM      7  N   UNL     1       2.319   1.659  -4.131  0.00  0.00    +0.000 N 
ATOM      8  H   UNL     1       1.048   1.702  -1.910  0.00  0.00    +0.000 HD
ATOM      9  H   UNL     1       2.117   2.613  -3.798  0.00  0.00    +0.000 HD
ATOM     10  H   UNL     1       2.826   1.518  -5.016  0.00  0.00    +0.000 HD
ENDROOT
BRANCH   5  11
ATOM     11  N   UNL     1       1.972  -3.098  -3.428  0.00  0.00    +0.000 N 
ATOM     12  H   UNL     1       2.472  -3.281  -4.309  0.00  0.00    +0.000 HD
ATOM     13  H   UNL     1       1.650  -3.883  -2.844  0.00  0.00    +0.000 HD
ENDBRANCH   5  11
BRANCH   1  14
ATOM     14  S   UNL     1       0.002  -0.004   0.002  0.00  0.00    +0.000 S 
BRANCH  14  15
ATOM     15  C   UNL     1      -0.022   1.806   0.012  0.00  0.00    +0.000 C 
BRANCH  15  16
ATOM     16  C   UNL     1      -0.739   2.299   1.271  0.00  0.00    +0.000 C 
BRANCH  16  21
ATOM     17  C   UNL     1       0.788   6.711   0.747  0.00  0.00    +0.000 C 
ATOM     18  C   UNL     1      -0.237   5.964   1.604  0.00  0.00    +0.000 C 
ATOM     19  C   UNL     1       0.199   4.531   1.836  0.00  0.00    +0.000 C 
ATOM     20  O   UNL     1       1.202   4.154   2.403  0.00  0.00    +0.000 OA
ATOM     21  N   UNL     1      -0.758   3.764   1.279  0.00  0.00    +0.000 N 
ATOM     22  C   UNL     1      -1.733   4.505   0.739  0.00  0.00    +0.000 C 
ATOM     23  O   UNL     1      -2.707   4.039   0.182  0.00  0.00    +0.000 OA
ATOM     24  N   UNL     1      -1.513   5.825   0.881  0.00  0.00    +0.000 NA
ATOM     25  C   UNL     1      -0.449   6.681   2.939  0.00  0.00    +0.000 C 
ENDBRANCH  16  21
ENDBRANCH  15  16
ENDBRANCH  14  15
ENDBRANCH   1  14
TORSDOF 5
ENDMDL
MODEL      381
REMARK  Name = ZINC05433694
REMARK  5 active torsions:
REMARK  status: ('A' for Active; 'I' for Inactive)
REMARK    1  A    between atoms: C_1  and  N_20
REMARK    2  A    between atoms: C_2  and  C_3
REMARK    3  A    between atoms: C_2  and  N_20
REMARK    4  A    between atoms: N_13  and  C_16
REMARK    5  A    between atoms: C_16  and  C_17
REMARK                            x       y       z     vdW  Elec       q    Type
REMARK                         _______ _______ _______ _____ _____    ______ ____
ROOT
ATOM      1  C   UNL     1      -0.718   1.572   1.248  0.00  0.00    +0.000 C 
ATOM      2  O   UNL     1      -1.714   2.256   1.150  0.00  0.00    +0.000 OA
ATOM      3  N   UNL     1      -0.242   1.246   2.466  0.00  0.00    +0.000 N 
ATOM      4  C   UNL     1       0.965   0.417   2.587  0.00  0.00    +0.000 C 
ATOM      5  C   UNL     1       2.007   1.171   3.430  0.00  0.00    +0.000 C 
ATOM      6  N   UNL     1       1.313   1.716   4.599  0.00  0.00    +0.000 N 
ATOM      7  C   UNL     1       0.077   2.525   4.510  0.00  0.00    +0.000 C 
ATOM      8  C   UNL     1      -0.925   1.724   3.677  0.00  0.00    +0.000 C 
ATOM      9  C   UNL     1      -0.377   2.612   5.950  0.00  0.00    +0.000 C 
ATOM     10  O   UNL     1      -1.413   3.085   6.364  0.00  0.00    +0.000 OA
ATOM     11  N   UNL     1       0.613   2.053   6.678  0.00  0.00    +0.000 N 
ATOM     12  C   UNL     1       1.599   1.587   5.897  0.00  0.00    +0.000 C 
ATOM     13  O   UNL     1       2.631   1.105   6.321  0.00  0.00    +0.000 OA
ENDROOT
BRANCH   1  14
ATOM     14  C   UNL     1      -0.013   1.086   0.008  0.00  0.00    +0.000 C 
BRANCH  14  16
ATOM     15  C   UNL     1      -0.062   1.117  -2.413  0.00  0.00    +0.000 C 
ATOM     16  N   UNL     1      -0.732   1.579  -1.182  0.00  0.00    +0.000 N 
ATOM     17  H   UNL     1      -0.749   2.608  -1.168  0.00  0.00    +0.000 HD
ATOM     18  H   UNL     1      -1.699   1.225  -1.165  0.00  0.00    +0.000 HD
ENDBRANCH  14  16
ENDBRANCH   1  14
BRANCH  11  19
ATOM     19  C   UNL     1       0.610   1.967   8.141  0.00  0.00    +0.000 C 
BRANCH  19  20
ATOM     20  C   UNL     1       1.264   3.196   8.718  0.00  0.00    +0.000 C 
ATOM     21  O   UNL     1       1.691   4.059   7.980  0.00  0.00    +0.000 OA
ATOM     22  N   UNL     1       1.376   3.336  10.053  0.00  0.00    +0.000 N 
ATOM     23  H   UNL     1       1.014   2.603  10.680  0.00  0.00    +0.000 HD
ATOM     24  H   UNL     1       1.823   4.176  10.448  0.00  0.00    +0.000 HD
ENDBRANCH  19  20
ENDBRANCH  11  19
TORSDOF 4
ENDMDL
MODEL      382
REMARK  Name = ZINC12504165
REMARK  7 active torsions:
REMARK  status: ('A' for Active; 'I' for Inactive)
REMARK    1  A    between atoms: C_7  and  C_10
REMARK    2  A    between atoms: C_10  and  C_11
REMARK    3  A    between atoms: C_10  and  O_17
REMARK    4  A    between atoms: C_11  and  C_12
REMARK    5  A    between atoms: C_11  and  O_16
REMARK    6  A    between atoms: C_12  and  O_13
REMARK    7  A    between atoms: O_13  and  P_14
REMARK                            x       y       z     vdW  Elec       q    Type
REMARK                         _______ _______ _______ _____ _____    ______ ____
ROOT
ATOM      1  C   UNL     1       0.079   1.179   2.503  0.00  0.00    +0.000 C 
ENDROOT
BRANCH   1   8
ATOM      2  C   UNL     1      -1.625  -1.009   6.159  0.00  0.00    +0.000 A 
ATOM      3  C   UNL     1      -2.211  -0.154   7.103  0.00  0.00    +0.000 A 
ATOM      4  C   UNL     1      -2.264   1.185   6.941  0.00  0.00    +0.000 A 
ATOM      5  C   UNL     1      -1.713   1.790   5.777  0.00  0.00    +0.000 A 
ATOM      6  N   UNL     1      -1.641   3.042   5.396  0.00  0.00    +0.000 NA
ATOM      7  C   UNL     1      -0.956   3.097   4.099  0.00  0.00    +0.000 C 
ATOM      8  C   UNL     1      -0.627   1.665   3.743  0.00  0.00    +0.000 C 
ATOM      9  C   UNL     1      -1.088   0.909   4.765  0.00  0.00    +0.000 A 
ATOM     10  C   UNL     1      -1.072  -0.537   5.019  0.00  0.00    +0.000 A 
ENDBRANCH   1   8
BRANCH   1  11
ATOM     11  O   UNL     1       1.379   1.766   2.434  0.00  0.00    +0.000 OA
ATOM     12  H   UNL     1       1.903   1.508   3.233  0.00  0.00    +0.000 HD
ENDBRANCH   1  11
BRANCH   1  13
ATOM     13  C   UNL     1      -0.729   1.579   1.267  0.00  0.00    +0.000 C 
BRANCH  13  14
ATOM     14  O   UNL     1      -2.030   0.991   1.336  0.00  0.00    +0.000 OA
ATOM     15  H   UNL     1      -2.494   1.310   2.150  0.00  0.00    +0.000 HD
ENDBRANCH  13  14
BRANCH  13  16
ATOM     16  C   UNL     1      -0.013   1.086   0.008  0.00  0.00    +0.000 C 
BRANCH  16  17
ATOM     17  O   UNL     1      -0.704   1.559  -1.150  0.00  0.00    +0.000 OA
BRANCH  17  18
ATOM     18  P   UNL     1      -0.227   1.230  -2.652  0.00  0.00    +0.000 P 
ATOM     19  O   UNL     1      -0.112  -0.236  -2.822  0.00  0.00    +0.000 OA
ATOM     20  O   UNL     1      -1.306   1.809  -3.697  0.00  0.00    +0.000 OA
ATOM     21  O   UNL     1       1.205   1.915  -2.923  0.00  0.00    +0.000 OA
ENDBRANCH  17  18
ENDBRANCH  16  17
ENDBRANCH  13  16
ENDBRANCH   1  13
TORSDOF 7
ENDMDL
MODEL      383
REMARK  Name = ZINC28198332
REMARK  8 active torsions:
REMARK  status: ('A' for Active; 'I' for Inactive)
REMARK    1  A    between atoms: C_1  and  C_2
REMARK    2  A    between atoms: C_2  and  C_3
REMARK    3  A    between atoms: C_2  and  C_4
REMARK    4  A    between atoms: N_6  and  N_7
REMARK    5  A    between atoms: N_7  and  S_8
REMARK    6  A    between atoms: S_8  and  C_11
REMARK    7  A    between atoms: C_13  and  C_17
REMARK    8  A    between atoms: N_14  and  C_16
REMARK                            x       y       z     vdW  Elec       q    Type
REMARK                         _______ _______ _______ _____ _____    ______ ____
ROOT
ATOM      1  S   UNL     1      -1.326   2.503   0.212  0.00  0.00    +0.000 S 
ATOM      2  O   UNL     1      -1.046   3.858   0.534  0.00  0.00    +0.000 OA
ATOM      3  O   UNL     1      -2.008   2.128  -0.977  0.00  0.00    +0.000 OA
ENDROOT
BRANCH   1   4
ATOM      4  C   UNL     1      -2.260   1.849   1.555  0.00  0.00    +0.000 A 
ATOM      5  C   UNL     1      -3.138   0.762   1.495  0.00  0.00    +0.000 A 
ATOM      6  C   UNL     1      -3.651   0.585   2.763  0.00  0.00    +0.000 A 
ATOM      7  N   UNL     1      -3.101   1.554   3.571  0.00  0.00    +0.000 N 
ATOM      8  C   UNL     1      -2.260   2.313   2.828  0.00  0.00    +0.000 A 
ATOM      9  C   UNL     1      -3.378   1.734   4.999  0.00  0.00    +0.000 C 
BRANCH   6  10
ATOM     10  C   UNL     1      -4.613  -0.443   3.173  0.00  0.00    +0.000 C 
ATOM     11  O   UNL     1      -5.071  -0.432   4.301  0.00  0.00    +0.000 OA
ATOM     12  N   UNL     1      -4.989  -1.400   2.302  0.00  0.00    +0.000 N 
ATOM     13  H   UNL     1      -4.601  -1.409   1.348  0.00  0.00    +0.000 HD
ATOM     14  H   UNL     1      -5.665  -2.122   2.590  0.00  0.00    +0.000 HD
ENDBRANCH   6  10
ENDBRANCH   1   4
BRANCH   1  15
ATOM     15  N   UNL     1       0.128   1.710   0.194  0.00  0.00    +0.000 NA
BRANCH  15  18
ATOM     16  C   UNL     1       0.897  -0.223  -0.962  0.00  0.00    +0.000 C 
ATOM     17  O   UNL     1       1.523   0.493  -1.715  0.00  0.00    +0.000 OA
ATOM     18  N   UNL     1       0.165   0.319   0.031  0.00  0.00    +0.000 N 
ATOM     19  H   UNL     1      -0.367  -0.289   0.670  0.00  0.00    +0.000 HD
BRANCH  16  21
ATOM     20  C   UNL     1      -0.478  -2.241  -1.394  0.00  0.00    +0.000 C 
ATOM     21  C   UNL     1       0.937  -1.719  -1.138  0.00  0.00    +0.000 C 
ATOM     22  C   UNL     1       1.833  -2.069  -2.328  0.00  0.00    +0.000 C 
ENDBRANCH  16  21
ENDBRANCH  15  18
ENDBRANCH   1  15
TORSDOF 5
ENDMDL
MODEL      384
REMARK  Name = ZINC16321740
REMARK  8 active torsions:
REMARK  status: ('A' for Active; 'I' for Inactive)
REMARK    1  A    between atoms: C_1  and  C_2
REMARK    2  A    between atoms: C_2  and  O_4
REMARK    3  A    between atoms: O_4  and  C_5
REMARK    4  A    between atoms: C_5  and  C_6
REMARK    5  A    between atoms: C_7  and  O_20
REMARK    6  A    between atoms: C_8  and  O_19
REMARK    7  A    between atoms: C_9  and  N_11
REMARK    8  A    between atoms: C_14  and  C_16
REMARK                            x       y       z     vdW  Elec       q    Type
REMARK                         _______ _______ _______ _____ _____    ______ ____
ROOT
ATOM      1  C   UNL     1       1.836   1.502   1.340  0.00  0.00    +0.000 C 
ATOM      2  C   UNL     1       0.622   1.532   2.289  0.00  0.00    +0.000 C 
ATOM      3  C   UNL     1      -0.599   1.616   1.341  0.00  0.00    +0.000 C 
ATOM      4  C   UNL     1      -0.013   1.086   0.008  0.00  0.00    +0.000 C 
ATOM      5  O   UNL     1       1.331   1.613  -0.002  0.00  0.00    +0.000 OA
ENDROOT
BRANCH   4   6
ATOM      6  N   UNL     1      -0.775   1.596  -1.134  0.00  0.00    +0.000 N 
ATOM      7  C   UNL     1      -0.273   2.305  -2.161  0.00  0.00    +0.000 A 
ATOM      8  N   UNL     1      -1.260   2.576  -2.977  0.00  0.00    +0.000 NA
ATOM      9  C   UNL     1      -2.373   2.032  -2.451  0.00  0.00    +0.000 A 
ATOM     10  N   UNL     1      -2.039   1.437  -1.327  0.00  0.00    +0.000 NA
BRANCH   9  11
ATOM     11  C   UNL     1      -3.729   2.090  -3.036  0.00  0.00    +0.000 C 
ATOM     12  O   UNL     1      -4.661   1.558  -2.464  0.00  0.00    +0.000 OA
ATOM     13  N   UNL     1      -3.933   2.732  -4.203  0.00  0.00    +0.000 N 
ATOM     14  H   UNL     1      -3.144   3.183  -4.688  0.00  0.00    +0.000 HD
ATOM     15  H   UNL     1      -4.878   2.773  -4.611  0.00  0.00    +0.000 HD
ENDBRANCH   9  11
ENDBRANCH   4   6
BRANCH   3  16
ATOM     16  O   UNL     1      -1.661   0.777   1.801  0.00  0.00    +0.000 OA
ATOM     17  H   UNL     1      -1.926   1.067   2.710  0.00  0.00    +0.000 HD
ENDBRANCH   3  16
BRANCH   2  18
ATOM     18  O   UNL     1       0.680   2.680   3.138  0.00  0.00    +0.000 OA
ATOM     19  H   UNL     1       0.682   3.496   2.579  0.00  0.00    +0.000 HD
ENDBRANCH   2  18
BRANCH   1  20
ATOM     20  C   UNL     1       2.767   2.677   1.644  0.00  0.00    +0.000 C 
BRANCH  20  21
ATOM     21  O   UNL     1       3.955   2.580   0.815  0.00  0.00    +0.000 OA
BRANCH  21  23
ATOM     22  C   UNL     1       6.140   3.507   0.134  0.00  0.00    +0.000 C 
ATOM     23  C   UNL     1       4.880   3.541   0.961  0.00  0.00    +0.000 C 
ATOM     24  O   UNL     1       4.703   4.435   1.754  0.00  0.00    +0.000 OA
ENDBRANCH  21  23
ENDBRANCH  20  21
ENDBRANCH   1  20
TORSDOF 7
ENDMDL
MODEL      385
REMARK  Name = ZINC25269233
REMARK  7 active torsions:
REMARK  status: ('A' for Active; 'I' for Inactive)
REMARK    1  A    between atoms: C_1  and  N_2
REMARK    2  A    between atoms: C_3  and  C_5
REMARK    3  A    between atoms: C_5  and  N_6
REMARK    4  A    between atoms: C_7  and  C_9
REMARK    5  A    between atoms: C_9  and  C_10
REMARK    6  A    between atoms: C_10  and  C_11
REMARK    7  A    between atoms: N_18  and  C_21
REMARK                            x       y       z     vdW  Elec       q    Type
REMARK                         _______ _______ _______ _____ _____    ______ ____
ROOT
ATOM      1  C   UNL     1       1.133  -4.073  -0.034  0.00  0.00    +0.000 C 
ENDROOT
BRANCH   1   2
ATOM      2  C   UNL     1       0.716  -2.625  -0.021  0.00  0.00    +0.000 A 
ATOM      3  N   UNL     1      -0.609  -2.334  -0.006  0.00  0.00    +0.000 N 
ATOM      4  C   UNL     1      -1.025  -1.046   0.005  0.00  0.00    +0.000 A 
ATOM      5  O   UNL     1      -2.210  -0.764   0.019  0.00  0.00    +0.000 OA
ATOM      6  C   UNL     1       0.002  -0.004   0.002  0.00  0.00    +0.000 A 
ATOM      7  C   UNL     1      -0.017   1.403   0.010  0.00  0.00    +0.000 A 
ATOM      8  N   UNL     1       1.216   1.830   0.000  0.00  0.00    +0.000 NA
ATOM      9  N   UNL     1       2.090   0.736  -0.014  0.00  0.00    +0.000 N 
ATOM     10  C   UNL     1       1.348  -0.403  -0.013  0.00  0.00    +0.000 A 
ATOM     11  N   UNL     1       1.643  -1.712  -0.024  0.00  0.00    +0.000 NA
ATOM     12  C   UNL     1       3.553   0.806  -0.028  0.00  0.00    +0.000 C 
ATOM     13  H   UNL     1      -1.302  -3.096  -0.004  0.00  0.00    +0.000 HD
ENDBRANCH   1   2
BRANCH   1  14
ATOM     14  C   UNL     1       2.661  -4.163  -0.049  0.00  0.00    +0.000 C 
BRANCH  14  16
ATOM     15  N   UNL     1       4.386  -5.935  -0.076  0.00  0.00    +0.000 N 
ATOM     16  C   UNL     1       3.078  -5.611  -0.062  0.00  0.00    +0.000 C 
ATOM     17  O   UNL     1       2.237  -6.485  -0.059  0.00  0.00    +0.000 OA
ATOM     18  H   UNL     1       5.101  -5.193  -0.079  0.00  0.00    +0.000 HD
BRANCH  15  19
ATOM     19  C   UNL     1       4.792  -7.343  -0.089  0.00  0.00    +0.000 C 
BRANCH  19  22
ATOM     20  C   UNL     1       8.363  -8.723  -0.132  0.00  0.00    +0.000 C 
ATOM     21  N   UNL     1       6.901  -8.636  -0.117  0.00  0.00    +0.000 N 
ATOM     22  C   UNL     1       6.297  -7.431  -0.104  0.00  0.00    +0.000 C 
ATOM     23  O   UNL     1       6.964  -6.419  -0.104  0.00  0.00    +0.000 OA
ATOM     24  H   UNL     1       6.334  -9.496  -0.117  0.00  0.00    +0.000 HD
ENDBRANCH  19  22
ENDBRANCH  15  19
ENDBRANCH  14  16
ENDBRANCH   1  14
TORSDOF 5
ENDMDL
MODEL      386
REMARK  Name = ZINC05500274
REMARK  6 active torsions:
REMARK  status: ('A' for Active; 'I' for Inactive)
REMARK    1  A    between atoms: C_1  and  C_2
REMARK    2  A    between atoms: C_2  and  C_10
REMARK    3  A    between atoms: N_3  and  N_4
REMARK    4  A    between atoms: C_5  and  C_7
REMARK    5  A    between atoms: C_10  and  C_11
REMARK    6  A    between atoms: C_11  and  N_12
REMARK                            x       y       z     vdW  Elec       q    Type
REMARK                         _______ _______ _______ _____ _____    ______ ____
ROOT
ATOM      1  C   UNL     1      -4.440   6.255  -1.465  0.00  0.00    +0.000 C 
ATOM      2  C   UNL     1      -4.418   4.751  -1.373  0.00  0.00    +0.000 C 
ATOM      3  N   UNL     1      -5.515   4.100  -1.264  0.00  0.00    +0.000 NA
ENDROOT
BRANCH   3   4
ATOM      4  N   UNL     1      -5.489   2.714  -1.060  0.00  0.00    +0.000 N 
ATOM      5  C   UNL     1      -6.640   2.013  -1.052  0.00  0.00    +0.000 C 
ATOM      6  O   UNL     1      -7.699   2.582  -1.220  0.00  0.00    +0.000 OA
ATOM      7  H   UNL     1      -4.591   2.231  -0.917  0.00  0.00    +0.000 HD
BRANCH   5   8
ATOM      8  C   UNL     1      -6.613   0.536  -0.836  0.00  0.00    +0.000 C 
ATOM      9  O   UNL     1      -5.555  -0.033  -0.667  0.00  0.00    +0.000 OA
ATOM     10  N   UNL     1      -7.764  -0.165  -0.827  0.00  0.00    +0.000 N 
ATOM     11  H   UNL     1      -8.663   0.318  -0.970  0.00  0.00    +0.000 HD
ATOM     12  H   UNL     1      -7.746  -1.184  -0.678  0.00  0.00    +0.000 HD
ENDBRANCH   5   8
ENDBRANCH   3   4
BRANCH   2  13
ATOM     13  C   UNL     1      -3.104   4.013  -1.411  0.00  0.00    +0.000 C 
BRANCH  13  14
ATOM     14  C   UNL     1      -2.576   3.838   0.014  0.00  0.00    +0.000 C 
BRANCH  14  15
ATOM     15  N   UNL     1      -1.299   3.121  -0.023  0.00  0.00    +0.000 N 
ATOM     16  C   UNL     1      -1.295   1.775  -0.062  0.00  0.00    +0.000 A 
ATOM     17  O   UNL     1      -2.345   1.164  -0.067  0.00  0.00    +0.000 OA
ATOM     18  C   UNL     1      -0.012   1.041  -0.094  0.00  0.00    +0.000 A 
ATOM     19  C   UNL     1       1.139   1.737  -0.095  0.00  0.00    +0.000 A 
ATOM     20  C   UNL     1       1.087   3.213  -0.058  0.00  0.00    +0.000 A 
ATOM     21  O   UNL     1       2.117   3.858  -0.057  0.00  0.00    +0.000 OA
ATOM     22  N   UNL     1      -0.102   3.844  -0.024  0.00  0.00    +0.000 NA
ENDBRANCH  14  15
ENDBRANCH  13  14
ENDBRANCH   2  13
TORSDOF 5
ENDMDL
MODEL      387
REMARK  Name = ZINC11851281
REMARK  7 active torsions:
REMARK  status: ('A' for Active; 'I' for Inactive)
REMARK    1  A    between atoms: C_1  and  O_2
REMARK    2  A    between atoms: O_2  and  C_3
REMARK    3  A    between atoms: C_3  and  C_4
REMARK    4  A    between atoms: C_7  and  N_9
REMARK    5  A    between atoms: N_9  and  S_10
REMARK    6  A    between atoms: S_10  and  C_13
REMARK    7  A    between atoms: C_16  and  N_19
REMARK                            x       y       z     vdW  Elec       q    Type
REMARK                         _______ _______ _______ _____ _____    ______ ____
ROOT
ATOM      1  S   UNL     1       0.070  -3.100  -0.015  0.00  0.00    +0.000 S 
ATOM      2  O   UNL     1       0.611  -4.413  -0.054  0.00  0.00    +0.000 OA
ATOM      3  O   UNL     1      -0.800  -2.666   1.022  0.00  0.00    +0.000 OA
ENDROOT
BRANCH   1   4
ATOM      4  C   UNL     1      -0.798  -2.868  -1.530  0.00  0.00    +0.000 A 
ATOM      5  C   UNL     1      -1.821  -1.939  -1.605  0.00  0.00    +0.000 A 
ATOM      6  C   UNL     1      -2.499  -1.750  -2.792  0.00  0.00    +0.000 A 
ATOM      7  C   UNL     1      -2.161  -2.502  -3.911  0.00  0.00    +0.000 A 
ATOM      8  C   UNL     1      -1.137  -3.438  -3.831  0.00  0.00    +0.000 A 
ATOM      9  C   UNL     1      -0.459  -3.618  -2.642  0.00  0.00    +0.000 A 
BRANCH   7  10
ATOM     10  N   UNL     1      -2.849  -2.317  -5.112  0.00  0.00    +0.000 N 
ATOM     11  H   UNL     1      -3.607  -1.623  -5.169  0.00  0.00    +0.000 HD
ATOM     12  H   UNL     1      -2.598  -2.875  -5.941  0.00  0.00    +0.000 HD
ENDBRANCH   7  10
ENDBRANCH   1   4
BRANCH   1  13
ATOM     13  N   UNL     1       1.356  -2.058  -0.022  0.00  0.00    +0.000 NA
BRANCH  13  17
ATOM     14  C   UNL     1       1.090   1.974   0.002  0.00  0.00    +0.000 A 
ATOM     15  N   UNL     1      -0.015   1.257   0.009  0.00  0.00    +0.000 NA
ATOM     16  N   UNL     1       0.002  -0.004   0.002  0.00  0.00    +0.000 NA
ATOM     17  C   UNL     1       1.139  -0.688  -0.013  0.00  0.00    +0.000 A 
ATOM     18  S   UNL     1       2.312   0.665  -0.016  0.00  0.00    +0.000 S 
BRANCH  14  19
ATOM     19  C   UNL     1       1.274   3.470   0.009  0.00  0.00    +0.000 C 
BRANCH  19  21
ATOM     20  C   UNL     1       1.520   5.349   1.476  0.00  0.00    +0.000 C 
ATOM     21  O   UNL     1       1.345   3.936   1.358  0.00  0.00    +0.000 OA
ENDBRANCH  19  21
ENDBRANCH  14  19
ENDBRANCH  13  17
ENDBRANCH   1  13
TORSDOF 6
ENDMDL
MODEL      388
REMARK  Name = ZINC18208800
REMARK  8 active torsions:
REMARK  status: ('A' for Active; 'I' for Inactive)
REMARK    1  A    between atoms: C_1  and  O_2
REMARK    2  A    between atoms: O_2  and  C_3
REMARK    3  A    between atoms: C_5  and  C_13
REMARK    4  A    between atoms: C_7  and  O_11
REMARK    5  A    between atoms: C_8  and  O_9
REMARK    6  A    between atoms: O_9  and  C_10
REMARK    7  A    between atoms: O_11  and  C_12
REMARK    8  A    between atoms: C_13  and  C_14
REMARK                            x       y       z     vdW  Elec       q    Type
REMARK                         _______ _______ _______ _____ _____    ______ ____
ROOT
ATOM      1  C   UNL     1       0.002  -0.004   0.002  0.00  0.00    +0.000 A 
ATOM      2  C   UNL     1      -0.017   1.382   0.010  0.00  0.00    +0.000 A 
ATOM      3  C   UNL     1       1.170   2.092   0.002  0.00  0.00    +0.000 A 
ATOM      4  C   UNL     1       2.379   1.423  -0.013  0.00  0.00    +0.000 A 
ATOM      5  C   UNL     1       2.407   0.036  -0.021  0.00  0.00    +0.000 A 
ATOM      6  C   UNL     1       1.216  -0.681  -0.013  0.00  0.00    +0.000 A 
ENDROOT
BRANCH   1   8
ATOM      7  C   UNL     1      -2.375   0.060   0.024  0.00  0.00    +0.000 C 
ATOM      8  O   UNL     1      -1.166  -0.701   0.009  0.00  0.00    +0.000 OA
ENDBRANCH   1   8
BRANCH   6   9
ATOM      9  O   UNL     1       1.239  -2.041  -0.020  0.00  0.00    +0.000 OA
ATOM     10  C   UNL     1       1.237  -2.684  -1.297  0.00  0.00    +0.000 C 
ENDBRANCH   6   9
BRANCH   5  11
ATOM     11  O   UNL     1       3.597  -0.621  -0.035  0.00  0.00    +0.000 OA
ATOM     12  C   UNL     1       4.780   0.180  -0.042  0.00  0.00    +0.000 C 
ENDBRANCH   5  11
BRANCH   3  13
ATOM     13  C   UNL     1       1.145   3.598   0.010  0.00  0.00    +0.000 C 
BRANCH  13  14
ATOM     14  C   UNL     1       1.150   4.093   1.434  0.00  0.00    +0.000 A 
ATOM     15  C   UNL     1      -0.109   4.322   2.148  0.00  0.00    +0.000 A 
ATOM     16  O   UNL     1      -1.178   4.114   1.594  0.00  0.00    +0.000 OA
ATOM     17  N   UNL     1      -0.078   4.757   3.413  0.00  0.00    +0.000 NA
ATOM     18  C   UNL     1       1.072   4.989   4.014  0.00  0.00    +0.000 A 
ATOM     19  N   UNL     1       2.252   4.790   3.374  0.00  0.00    +0.000 NA
ATOM     20  N   UNL     1       2.276   4.330   2.050  0.00  0.00    +0.000 NA
ATOM     21  N   UNL     1       1.076   5.440   5.307  0.00  0.00    +0.000 N 
ATOM     22  H   UNL     1       0.190   5.596   5.808  0.00  0.00    +0.000 HD
ATOM     23  H   UNL     1       1.972   5.623   5.781  0.00  0.00    +0.000 HD
ENDBRANCH  13  14
ENDBRANCH   3  13
TORSDOF 5
ENDMDL
MODEL      389
REMARK  Name = ZINC03599470
REMARK  5 active torsions:
REMARK  status: ('A' for Active; 'I' for Inactive)
REMARK    1  A    between atoms: C_1  and  C_2
REMARK    2  A    between atoms: C_2  and  O_4
REMARK    3  A    between atoms: O_4  and  C_5
REMARK    4  A    between atoms: N_13  and  N_14
REMARK    5  A    between atoms: C_15  and  C_17
REMARK                            x       y       z     vdW  Elec       q    Type
REMARK                         _______ _______ _______ _____ _____    ______ ____
ROOT
ATOM      1  C   UNL     1      -2.393   1.052   0.019  0.00  0.00    +0.000 A 
ATOM      2  C   UNL     1      -3.460   1.797  -0.762  0.00  0.00    +0.000 A 
ATOM      3  O   UNL     1      -3.289   2.117  -1.919  0.00  0.00    +0.000 OA
ATOM      4  N   UNL     1      -4.608   2.087  -0.120  0.00  0.00    +0.000 N 
ATOM      5  C   UNL     1      -4.802   1.732   1.181  0.00  0.00    +0.000 A 
ATOM      6  N   UNL     1      -3.926   1.090   1.920  0.00  0.00    +0.000 NA
ATOM      7  C   UNL     1      -2.733   0.715   1.458  0.00  0.00    +0.000 A 
ATOM      8  O   UNL     1      -1.944   0.121   2.167  0.00  0.00    +0.000 OA
ATOM      9  N   UNL     1      -5.989   2.066   1.756  0.00  0.00    +0.000 N 
ATOM     10  H   UNL     1      -5.355   2.588  -0.622  0.00  0.00    +0.000 HD
ATOM     11  H   UNL     1      -6.702   2.570   1.210  0.00  0.00    +0.000 HD
ENDROOT
BRANCH   9  12
ATOM     12  N   UNL     1      -6.241   1.725   3.091  0.00  0.00    +0.000 N 
ATOM     13  C   UNL     1      -7.417   2.056   3.661  0.00  0.00    +0.000 C 
ATOM     14  O   UNL     1      -8.259   2.650   3.017  0.00  0.00    +0.000 OA
ATOM     15  H   UNL     1      -5.528   1.221   3.638  0.00  0.00    +0.000 HD
BRANCH  13  16
ATOM     16  C   UNL     1      -7.683   1.695   5.070  0.00  0.00    +0.000 A 
ATOM     17  C   UNL     1      -6.721   1.007   5.811  0.00  0.00    +0.000 A 
ATOM     18  C   UNL     1      -6.974   0.679   7.127  0.00  0.00    +0.000 A 
ATOM     19  C   UNL     1      -8.181   1.020   7.709  0.00  0.00    +0.000 A 
ATOM     20  C   UNL     1      -9.142   1.697   6.978  0.00  0.00    +0.000 A 
ATOM     21  C   UNL     1      -8.900   2.037   5.663  0.00  0.00    +0.000 A 
ENDBRANCH  13  16
ENDBRANCH   9  12
BRANCH   1  22
ATOM     22  O   UNL     1      -1.186   1.859   0.018  0.00  0.00    +0.000 OA
BRANCH  22  24
ATOM     23  C   UNL     1       1.280   1.975   0.000  0.00  0.00    +0.000 C 
ATOM     24  C   UNL     1      -0.014   1.204   0.009  0.00  0.00    +0.000 C 
ATOM     25  O   UNL     1       0.002  -0.004   0.002  0.00  0.00    +0.000 OA
ENDBRANCH  22  24
ENDBRANCH   1  22
TORSDOF 4
ENDMDL
MODEL      390
REMARK  Name = ZINC04429540
REMARK  5 active torsions:
REMARK  status: ('A' for Active; 'I' for Inactive)
REMARK    1  A    between atoms: C_6  and  N_7
REMARK    2  A    between atoms: N_7  and  S_8
REMARK    3  A    between atoms: S_8  and  C_11
REMARK    4  A    between atoms: C_11  and  C_12
REMARK    5  A    between atoms: C_12  and  C_13
REMARK                            x       y       z     vdW  Elec       q    Type
REMARK                         _______ _______ _______ _____ _____    ______ ____
ROOT
ATOM      1  S   UNL     1      -3.345   5.089   2.851  0.00  0.00    +0.000 S 
ATOM      2  O   UNL     1      -3.366   4.404   4.096  0.00  0.00    +0.000 OA
ATOM      3  O   UNL     1      -2.756   6.377   2.743  0.00  0.00    +0.000 OA
ENDROOT
BRANCH   1   4
ATOM      4  N   UNL     1      -4.940   5.320   2.469  0.00  0.00    +0.000 N 
ATOM      5  H   UNL     1      -5.282   6.263   2.234  0.00  0.00    +0.000 HD
BRANCH   4  11
ATOM      6  C   UNL     1      -6.261   3.701   1.260  0.00  0.00    +0.000 A 
ATOM      7  C   UNL     1      -7.128   2.626   1.258  0.00  0.00    +0.000 A 
ATOM      8  C   UNL     1      -7.568   2.087   2.455  0.00  0.00    +0.000 A 
ATOM      9  C   UNL     1      -7.135   2.621   3.657  0.00  0.00    +0.000 A 
ATOM     10  C   UNL     1      -6.264   3.693   3.664  0.00  0.00    +0.000 A 
ATOM     11  C   UNL     1      -5.822   4.235   2.464  0.00  0.00    +0.000 A 
ATOM     12  F   UNL     1      -8.420   1.039   2.450  0.00  0.00    +0.000 F 
ENDBRANCH   4  11
ENDBRANCH   1   4
BRANCH   1  13
ATOM     13  C   UNL     1      -2.706   3.999   1.550  0.00  0.00    +0.000 C 
BRANCH  13  14
ATOM     14  C   UNL     1      -1.230   3.698   1.815  0.00  0.00    +0.000 C 
BRANCH  14  15
ATOM     15  C   UNL     1      -0.691   2.779   0.717  0.00  0.00    +0.000 C 
ATOM     16  C   UNL     1       0.799   2.563   0.886  0.00  0.00    +0.000 C 
ATOM     17  O   UNL     1       1.670   3.406   0.852  0.00  0.00    +0.000 OA
ATOM     18  N   UNL     1       0.956   1.238   1.081  0.00  0.00    +0.000 N 
ATOM     19  C   UNL     1      -0.216   0.594   1.059  0.00  0.00    +0.000 C 
ATOM     20  O   UNL     1      -0.331  -0.606   1.212  0.00  0.00    +0.000 OA
ATOM     21  N   UNL     1      -1.254   1.423   0.843  0.00  0.00    +0.000 NA
ATOM     22  H   UNL     1       1.866   0.779   1.229  0.00  0.00    +0.000 HD
ENDBRANCH  14  15
ENDBRANCH  13  14
ENDBRANCH   1  13
TORSDOF 5
ENDMDL
MODEL      391
REMARK  Name = ZINC21195156
REMARK  12 active torsions:
REMARK  status: ('A' for Active; 'I' for Inactive)
REMARK    1  A    between atoms: C_1  and  O_2
REMARK    2  A    between atoms: O_2  and  C_3
REMARK    3  A    between atoms: C_6  and  O_9
REMARK    4  A    between atoms: O_9  and  C_10
REMARK    5  A    between atoms: C_10  and  C_11
REMARK    6  A    between atoms: C_11  and  C_13
REMARK    7  A    between atoms: C_17  and  C_20
REMARK    8  A    between atoms: C_18  and  O_19
REMARK    9  A    between atoms: C_20  and  N_21
REMARK   10  A    between atoms: N_24  and  C_27
REMARK   11  A    between atoms: C_27  and  C_28
REMARK   12  A    between atoms: C_28  and  O_29
REMARK                            x       y       z     vdW  Elec       q    Type
REMARK                         _______ _______ _______ _____ _____    ______ ____
ROOT
ATOM      1  C   UNL     1       2.276  -5.032  -0.111  0.00  0.00    +0.000 A 
ATOM      2  C   UNL     1       3.449  -4.265  -0.093  0.00  0.00    +0.000 A 
ATOM      3  C   UNL     1       4.667  -4.880  -0.062  0.00  0.00    +0.000 A 
ATOM      4  C   UNL     1       4.755  -6.270  -0.058  0.00  0.00    +0.000 A 
ATOM      5  C   UNL     1       3.605  -7.045  -0.081  0.00  0.00    +0.000 A 
ATOM      6  C   UNL     1       2.362  -6.436  -0.107  0.00  0.00    +0.000 A 
ATOM      7  O   UNL     1       5.972  -6.869  -0.031  0.00  0.00    +0.000 OA
ENDROOT
BRANCH   6   8
ATOM      8  O   UNL     1       1.234  -7.189  -0.129  0.00  0.00    +0.000 OA
ATOM      9  H   UNL     1       0.745  -6.887  -0.936  0.00  0.00    +0.000 HD
ENDBRANCH   6   8
BRANCH   1  10
ATOM     10  C   UNL     1       0.967  -4.375  -0.140  0.00  0.00    +0.000 C 
ATOM     11  O   UNL     1      -0.046  -5.042  -0.161  0.00  0.00    +0.000 OA
BRANCH  10  12
ATOM     12  C   UNL     1       0.880  -2.870  -0.144  0.00  0.00    +0.000 C 
BRANCH  12  13
ATOM     13  O   UNL     1      -0.493  -2.473  -0.174  0.00  0.00    +0.000 OA
BRANCH  13  17
ATOM     14  C   UNL     1      -1.270   1.581  -0.197  0.00  0.00    +0.000 A 
ATOM     15  C   UNL     1      -2.319   0.673  -0.217  0.00  0.00    +0.000 A 
ATOM     16  C   UNL     1      -2.059  -0.683  -0.210  0.00  0.00    +0.000 A 
ATOM     17  C   UNL     1      -0.749  -1.138  -0.181  0.00  0.00    +0.000 A 
ATOM     18  C   UNL     1       0.300  -0.230  -0.160  0.00  0.00    +0.000 A 
ATOM     19  C   UNL     1       0.040   1.126  -0.168  0.00  0.00    +0.000 A 
BRANCH  14  21
ATOM     20  C   UNL     1      -0.399   3.793  -0.182  0.00  0.00    +0.000 C 
ATOM     21  O   UNL     1      -1.526   2.916  -0.204  0.00  0.00    +0.000 OA
ENDBRANCH  14  21
ENDBRANCH  13  17
ENDBRANCH  12  13
ENDBRANCH  10  12
ENDBRANCH   1  10
BRANCH   5  22
ATOM     22  C   UNL     1       3.708  -8.549  -0.076  0.00  0.00    +0.000 C 
BRANCH  22  23
ATOM     23  N   UNL     1       3.770  -9.040  -1.459  0.00  0.00    +0.000 N 
ATOM     24  C   UNL     1       2.509  -8.781  -2.167  0.00  0.00    +0.000 C 
ATOM     25  C   UNL     1       2.641  -9.234  -3.623  0.00  0.00    +0.000 C 
ATOM     26  N   UNL     1       2.979 -10.664  -3.659  0.00  0.00    +0.000 NA
ATOM     27  C   UNL     1       4.241 -10.922  -2.951  0.00  0.00    +0.000 C 
ATOM     28  C   UNL     1       4.108 -10.469  -1.495  0.00  0.00    +0.000 C 
ATOM     29  H   UNL     1       4.518  -8.524  -1.944  0.00  0.00    +0.000 HD
BRANCH  26  30
ATOM     30  C   UNL     1       3.041 -11.155  -5.042  0.00  0.00    +0.000 C 
BRANCH  30  31
ATOM     31  C   UNL     1       2.908 -12.679  -5.049  0.00  0.00    +0.000 C 
BRANCH  31  32
ATOM     32  O   UNL     1       1.613 -13.046  -4.568  0.00  0.00    +0.000 OA
ATOM     33  H   UNL     1       0.918 -12.652  -5.153  0.00  0.00    +0.000 HD
ENDBRANCH  31  32
ENDBRANCH  30  31
ENDBRANCH  26  30
ENDBRANCH  22  23
ENDBRANCH   5  22
TORSDOF 11
ENDMDL
MODEL      392
REMARK  Name = ZINC20920233
REMARK  13 active torsions:
REMARK  status: ('A' for Active; 'I' for Inactive)
REMARK    1  A    between atoms: C_1  and  C_2
REMARK    2  A    between atoms: C_5  and  C_7
REMARK    3  A    between atoms: C_7  and  S_8
REMARK    4  A    between atoms: S_8  and  C_9
REMARK    5  A    between atoms: N_13  and  N_14
REMARK    6  A    between atoms: N_15  and  N_16
REMARK    7  A    between atoms: C_17  and  C_18
REMARK    8  A    between atoms: C_20  and  O_28
REMARK    9  A    between atoms: C_21  and  O_26
REMARK   10  A    between atoms: C_22  and  O_24
REMARK   11  A    between atoms: O_24  and  C_25
REMARK   12  A    between atoms: O_26  and  C_27
REMARK   13  A    between atoms: O_28  and  C_29
REMARK                            x       y       z     vdW  Elec       q    Type
REMARK                         _______ _______ _______ _____ _____    ______ ____
ROOT
ATOM      1  C   UNL     1       5.872   0.507  -1.594  0.00  0.00    +0.000 A 
ATOM      2  N   UNL     1       6.549   0.480  -0.470  0.00  0.00    +0.000 NA
ATOM      3  N   UNL     1       7.913   0.441  -0.787  0.00  0.00    +0.000 NA
ATOM      4  C   UNL     1       8.025   0.446  -2.094  0.00  0.00    +0.000 A 
ATOM      5  N   UNL     1       6.766   0.480  -2.626  0.00  0.00    +0.000 N 
ATOM      6  N   UNL     1       9.213   0.415  -2.810  0.00  0.00    +0.000 N 
ATOM      7  H   UNL     1       9.194   0.421  -3.840  0.00  0.00    +0.000 HD
ENDROOT
BRANCH   5   8
ATOM      8  N   UNL     1       6.457   0.490  -3.956  0.00  0.00    +0.000 N 
ATOM      9  H   UNL     1       5.453   0.521  -4.182  0.00  0.00    +0.000 HD
ATOM     10  H   UNL     1       7.171   0.469  -4.699  0.00  0.00    +0.000 HD
ENDBRANCH   5   8
BRANCH   6  11
ATOM     11  N   UNL     1      10.439   0.375  -2.133  0.00  0.00    +0.000 NA
ATOM     12  C   UNL     1      11.551   0.346  -2.803  0.00  0.00    +0.000 C 
BRANCH  12  13
ATOM     13  C   UNL     1      12.840   0.304  -2.091  0.00  0.00    +0.000 A 
ATOM     14  C   UNL     1      12.869   0.301  -0.694  0.00  0.00    +0.000 A 
ATOM     15  C   UNL     1      14.080   0.257  -0.028  0.00  0.00    +0.000 A 
ATOM     16  C   UNL     1      15.271   0.226  -0.748  0.00  0.00    +0.000 A 
ATOM     17  C   UNL     1      15.246   0.234  -2.139  0.00  0.00    +0.000 A 
ATOM     18  C   UNL     1      14.037   0.272  -2.811  0.00  0.00    +0.000 A 
BRANCH  17  19
ATOM     19  O   UNL     1      16.412   0.203  -2.839  0.00  0.00    +0.000 OA
ATOM     20  C   UNL     1      16.313   0.214  -4.265  0.00  0.00    +0.000 C 
ENDBRANCH  17  19
BRANCH  16  21
ATOM     21  O   UNL     1      16.461   0.187  -0.090  0.00  0.00    +0.000 OA
ATOM     22  C   UNL     1      17.066   1.442   0.230  0.00  0.00    +0.000 C 
ENDBRANCH  16  21
BRANCH  15  23
ATOM     23  O   UNL     1      14.109   0.250   1.332  0.00  0.00    +0.000 OA
ATOM     24  C   UNL     1      12.850   0.284   2.007  0.00  0.00    +0.000 C 
ENDBRANCH  15  23
ENDBRANCH  12  13
ENDBRANCH   6  11
BRANCH   1  25
ATOM     25  S   UNL     1       4.117   0.560  -1.745  0.00  0.00    +0.000 S 
BRANCH  25  26
ATOM     26  C   UNL     1       3.530   0.568  -0.029  0.00  0.00    +0.000 C 
BRANCH  26  31
ATOM     27  C   UNL     1      -1.242   2.174   0.020  0.00  0.00    +0.000 C 
ATOM     28  C   UNL     1      -0.016   1.298   0.009  0.00  0.00    +0.000 A 
ATOM     29  N   UNL     1       0.002  -0.004   0.002  0.00  0.00    +0.000 NA
ATOM     30  N   UNL     1       1.222  -0.414  -0.012  0.00  0.00    +0.000 NA
ATOM     31  C   UNL     1       2.023   0.612  -0.014  0.00  0.00    +0.000 A 
ATOM     32  O   UNL     1       1.261   1.718  -0.001  0.00  0.00    +0.000 OA
ENDBRANCH  26  31
ENDBRANCH  25  26
ENDBRANCH   1  25
TORSDOF 9
ENDMDL
MODEL      393
REMARK  Name = ZINC15672803
REMARK  11 active torsions:
REMARK  status: ('A' for Active; 'I' for Inactive)
REMARK    1  A    between atoms: C_1  and  O_2
REMARK    2  A    between atoms: O_2  and  C_3
REMARK    3  A    between atoms: C_6  and  C_11
REMARK    4  A    between atoms: C_8  and  O_9
REMARK    5  A    between atoms: O_9  and  C_10
REMARK    6  A    between atoms: C_11  and  N_12
REMARK    7  A    between atoms: C_13  and  C_15
REMARK    8  A    between atoms: C_15  and  C_16
REMARK    9  A    between atoms: C_20  and  C_21
REMARK   10  A    between atoms: C_21  and  C_22
REMARK   11  A    between atoms: C_24  and  C_27
REMARK                            x       y       z     vdW  Elec       q    Type
REMARK                         _______ _______ _______ _____ _____    ______ ____
ROOT
ATOM      1  C   UNL     1       1.120   7.426   3.078  0.00  0.00    +0.000 C 
ATOM      2  C   UNL     1       2.415   7.960   2.459  0.00  0.00    +0.000 C 
ATOM      3  C   UNL     1       2.413   9.489   2.525  0.00  0.00    +0.000 C 
ATOM      4  C   UNL     1       1.047   9.458   4.526  0.00  0.00    +0.000 C 
ATOM      5  C   UNL     1       1.008   7.928   4.520  0.00  0.00    +0.000 C 
ATOM      6  N   UNL     1       2.313   9.926   3.930  0.00  0.00    +0.000 N 
ATOM      7  H   UNL     1       2.349  10.954   3.972  0.00  0.00    +0.000 HD
ATOM      8  H   UNL     1       3.104   9.539   4.465  0.00  0.00    +0.000 HD
ENDROOT
BRANCH   5   9
ATOM      9  C   UNL     1       2.178   7.384   5.343  0.00  0.00    +0.000 C 
BRANCH   9  10
ATOM     10  C   UNL     1       2.001   7.777   6.787  0.00  0.00    +0.000 A 
ATOM     11  C   UNL     1       1.983   6.909   7.902  0.00  0.00    +0.000 A 
ATOM     12  C   UNL     1       1.798   7.749   8.967  0.00  0.00    +0.000 A 
ATOM     13  O   UNL     1       1.722   8.992   8.454  0.00  0.00    +0.000 OA
ATOM     14  N   UNL     1       1.842   8.982   7.251  0.00  0.00    +0.000 NA
BRANCH  12  15
ATOM     15  C   UNL     1       1.701   7.369  10.388  0.00  0.00    +0.000 C 
ATOM     16  O   UNL     1       1.788   6.201  10.712  0.00  0.00    +0.000 OA
ATOM     17  O   UNL     1       1.517   8.317  11.328  0.00  0.00    +0.000 OA
ENDBRANCH  12  15
ENDBRANCH   9  10
ENDBRANCH   5   9
BRANCH   1  18
ATOM     18  C   UNL     1       1.143   5.896   3.070  0.00  0.00    +0.000 C 
BRANCH  18  20
ATOM     19  N   UNL     1       1.154   4.077   1.394  0.00  0.00    +0.000 N 
ATOM     20  C   UNL     1       1.137   5.401   1.647  0.00  0.00    +0.000 C 
ATOM     21  O   UNL     1       1.117   6.193   0.729  0.00  0.00    +0.000 OA
ATOM     22  H   UNL     1       1.171   3.404   2.173  0.00  0.00    +0.000 HD
BRANCH  19  23
ATOM     23  C   UNL     1       1.149   3.596   0.010  0.00  0.00    +0.000 C 
BRANCH  23  27
ATOM     24  C   UNL     1       1.218  -0.680  -0.013  0.00  0.00    +0.000 A 
ATOM     25  C   UNL     1       2.405   0.035  -0.021  0.00  0.00    +0.000 A 
ATOM     26  C   UNL     1       2.379   1.417  -0.013  0.00  0.00    +0.000 A 
ATOM     27  C   UNL     1       1.171   2.089   0.002  0.00  0.00    +0.000 A 
ATOM     28  C   UNL     1      -0.017   1.381   0.010  0.00  0.00    +0.000 A 
ATOM     29  C   UNL     1       0.002  -0.004   0.002  0.00  0.00    +0.000 A 
BRANCH  24  31
ATOM     30  C   UNL     1       2.526  -2.666  -0.036  0.00  0.00    +0.000 C 
ATOM     31  O   UNL     1       1.242  -2.040  -0.020  0.00  0.00    +0.000 OA
ENDBRANCH  24  31
BRANCH  29  32
ATOM     32  O   UNL     1      -1.165  -0.702   0.009  0.00  0.00    +0.000 OA
ATOM     33  C   UNL     1      -2.375   0.059   0.024  0.00  0.00    +0.000 C 
ENDBRANCH  29  32
ENDBRANCH  23  27
ENDBRANCH  19  23
ENDBRANCH  18  20
ENDBRANCH   1  18
TORSDOF 9
ENDMDL
MODEL      394
REMARK  Name = ZINC25198314
REMARK  11 active torsions:
REMARK  status: ('A' for Active; 'I' for Inactive)
REMARK    1  A    between atoms: C_1  and  C_2
REMARK    2  A    between atoms: C_2  and  N_3
REMARK    3  A    between atoms: N_3  and  C_4
REMARK    4  A    between atoms: C_4  and  C_5
REMARK    5  A    between atoms: C_10  and  C_12
REMARK    6  A    between atoms: C_12  and  C_13
REMARK    7  A    between atoms: N_15  and  C_16
REMARK    8  A    between atoms: C_20  and  C_22
REMARK    9  A    between atoms: N_24  and  C_25
REMARK   10  A    between atoms: C_25  and  C_26
REMARK   11  A    between atoms: N_28  and  C_29
REMARK                            x       y       z     vdW  Elec       q    Type
REMARK                         _______ _______ _______ _____ _____    ______ ____
ROOT
ATOM      1  C   UNL     1      -1.205  -4.559  -3.513  0.00  0.00    +0.000 C 
ATOM      2  O   UNL     1      -0.290  -5.044  -2.881  0.00  0.00    +0.000 OA
ATOM      3  N   UNL     1      -2.128  -5.358  -4.083  0.00  0.00    +0.000 N 
ATOM      4  H   UNL     1      -2.949  -4.946  -4.550  0.00  0.00    +0.000 HD
ENDROOT
BRANCH   3   5
ATOM      5  C   UNL     1      -1.972  -6.748  -4.042  0.00  0.00    +0.000 A 
ATOM      6  C   UNL     1      -3.089  -7.572  -3.962  0.00  0.00    +0.000 A 
ATOM      7  C   UNL     1      -2.939  -8.945  -3.922  0.00  0.00    +0.000 A 
ATOM      8  C   UNL     1      -1.680  -9.508  -3.961  0.00  0.00    +0.000 A 
ATOM      9  C   UNL     1      -0.552  -8.691  -4.041  0.00  0.00    +0.000 A 
ATOM     10  C   UNL     1      -0.703  -7.304  -4.087  0.00  0.00    +0.000 A 
BRANCH   9  11
ATOM     11  C   UNL     1       0.799  -9.291  -4.083  0.00  0.00    +0.000 C 
ATOM     12  O   UNL     1       1.780  -8.577  -4.153  0.00  0.00    +0.000 OA
ATOM     13  N   UNL     1       0.942 -10.631  -4.043  0.00  0.00    +0.000 N 
ATOM     14  H   UNL     1       0.111 -11.236  -3.984  0.00  0.00    +0.000 HD
BRANCH  13  15
ATOM     15  C   UNL     1       2.280 -11.226  -4.085  0.00  0.00    +0.000 C 
BRANCH  15  16
ATOM     16  C   UNL     1       2.164 -12.727  -4.028  0.00  0.00    +0.000 C 
ATOM     17  O   UNL     1       1.071 -13.249  -3.959  0.00  0.00    +0.000 OA
ATOM     18  N   UNL     1       3.274 -13.491  -4.053  0.00  0.00    +0.000 N 
ATOM     19  C   UNL     1       3.161 -14.950  -3.997  0.00  0.00    +0.000 C 
ATOM     20  H   UNL     1       4.202 -13.048  -4.111  0.00  0.00    +0.000 HD
ENDBRANCH  15  16
ENDBRANCH  13  15
ENDBRANCH   9  11
ENDBRANCH   3   5
BRANCH   1  21
ATOM     21  C   UNL     1      -1.310  -3.063  -3.659  0.00  0.00    +0.000 C 
BRANCH  21  27
ATOM     22  N   UNL     1      -0.632  -0.054   0.335  0.00  0.00    +0.000 N 
ATOM     23  C   UNL     1      -0.460  -0.714  -0.846  0.00  0.00    +0.000 A 
ATOM     24  N   UNL     1      -0.302  -0.188  -2.050  0.00  0.00    +0.000 NA
ATOM     25  C   UNL     1      -0.140  -0.888  -3.143  0.00  0.00    +0.000 A 
ATOM     26  O   UNL     1       0.002  -0.380  -4.238  0.00  0.00    +0.000 OA
ATOM     27  C   UNL     1      -0.147  -2.396  -2.922  0.00  0.00    +0.000 A 
ATOM     28  S   UNL     1      -0.391  -2.430  -1.101  0.00  0.00    +0.000 S 
BRANCH  22  29
ATOM     29  C   UNL     1      -0.791  -0.809   1.580  0.00  0.00    +0.000 C 
ATOM     30  C   UNL     1      -2.276  -1.094   1.817  0.00  0.00    +0.000 C 
ENDBRANCH  22  29
BRANCH  22  32
ATOM     31  C   UNL     1       0.762   1.943   0.562  0.00  0.00    +0.000 C 
ATOM     32  C   UNL     1      -0.658   1.411   0.358  0.00  0.00    +0.000 C 
ENDBRANCH  22  32
ENDBRANCH  21  27
ENDBRANCH   1  21
TORSDOF 8
ENDMDL
MODEL      395
REMARK  Name = ZINC19639944
REMARK  15 active torsions:
REMARK  status: ('A' for Active; 'I' for Inactive)
REMARK    1  A    between atoms: C_1  and  C_2
REMARK    2  A    between atoms: C_2  and  C_3
REMARK    3  A    between atoms: C_3  and  C_4
REMARK    4  A    between atoms: C_4  and  C_5
REMARK    5  A    between atoms: C_5  and  C_6
REMARK    6  A    between atoms: C_6  and  C_7
REMARK    7  A    between atoms: C_7  and  C_28
REMARK    8  A    between atoms: C_10  and  C_15
REMARK    9  A    between atoms: C_10  and  O_27
REMARK   10  A    between atoms: C_17  and  C_26
REMARK   11  A    between atoms: C_18  and  C_25
REMARK   12  A    between atoms: C_19  and  C_21
REMARK   13  A    between atoms: C_21  and  C_22
REMARK   14  A    between atoms: C_21  and  O_24
REMARK   15  A    between atoms: C_28  and  N_30
REMARK                            x       y       z     vdW  Elec       q    Type
REMARK                         _______ _______ _______ _____ _____    ______ ____
ROOT
ATOM      1  C   UNL     1      -0.740   2.144   2.837  0.00  0.00    +0.000 C 
ATOM      2  C   UNL     1      -0.438   1.652   4.277  0.00  0.00    +0.000 C 
ATOM      3  C   UNL     1       0.670   2.620   4.740  0.00  0.00    +0.000 C 
ATOM      4  C   UNL     1       0.339   3.390   6.015  0.00  0.00    +0.000 C 
ATOM      5  C   UNL     1       0.318   4.559   5.067  0.00  0.00    +0.000 C 
ATOM      6  O   UNL     1       0.156   5.747   5.252  0.00  0.00    +0.000 OA
ATOM      7  N   UNL     1       0.540   3.847   3.943  0.00  0.00    +0.000 N 
ATOM      8  C   UNL     1      -0.572   3.675   2.988  0.00  0.00    +0.000 C 
ENDROOT
BRANCH   4   9
ATOM      9  C   UNL     1      -1.001   3.052   6.616  0.00  0.00    +0.000 A 
ATOM     10  C   UNL     1      -2.144   3.674   6.149  0.00  0.00    +0.000 A 
ATOM     11  C   UNL     1      -3.374   3.364   6.699  0.00  0.00    +0.000 A 
ATOM     12  C   UNL     1      -3.460   2.432   7.717  0.00  0.00    +0.000 A 
ATOM     13  C   UNL     1      -2.317   1.810   8.183  0.00  0.00    +0.000 A 
ATOM     14  C   UNL     1      -1.088   2.117   7.630  0.00  0.00    +0.000 A 
ATOM     15  C   UNL     1      -4.800   2.095   8.318  0.00  0.00    +0.000 C 
ATOM     16  C   UNL     1      -4.620   4.042   6.191  0.00  0.00    +0.000 C 
BRANCH  13  17
ATOM     17  C   UNL     1      -2.411   0.794   9.292  0.00  0.00    +0.000 C 
BRANCH  17  18
ATOM     18  C   UNL     1      -2.395   1.500  10.623  0.00  0.00    +0.000 C 
ATOM     19  O   UNL     1      -1.474   1.330  11.386  0.00  0.00    +0.000 OA
ATOM     20  O   UNL     1      -3.405   2.317  10.961  0.00  0.00    +0.000 OA
ENDBRANCH  17  18
BRANCH  17  21
ATOM     21  O   UNL     1      -1.300  -0.101   9.214  0.00  0.00    +0.000 OA
ATOM     22  H   UNL     1      -0.457   0.410   9.306  0.00  0.00    +0.000 HD
ENDBRANCH  17  21
ENDBRANCH  13  17
ENDBRANCH   4   9
BRANCH   4  23
ATOM     23  O   UNL     1       1.398   3.427   6.974  0.00  0.00    +0.000 OA
ATOM     24  H   UNL     1       2.183   3.837   6.530  0.00  0.00    +0.000 HD
ENDBRANCH   4  23
BRANCH   1  25
ATOM     25  C   UNL     1       0.273   1.577   1.840  0.00  0.00    +0.000 C 
BRANCH  25  26
ATOM     26  C   UNL     1       0.126   0.055   1.773  0.00  0.00    +0.000 C 
BRANCH  26  27
ATOM     27  C   UNL     1       1.065  -0.501   0.701  0.00  0.00    +0.000 C 
BRANCH  27  28
ATOM     28  C   UNL     1       0.918  -2.023   0.634  0.00  0.00    +0.000 C 
BRANCH  28  30
ATOM     29  C   UNL     1       1.710  -4.100  -0.505  0.00  0.00    +0.000 C 
ATOM     30  C   UNL     1       1.857  -2.579  -0.438  0.00  0.00    +0.000 C 
ENDBRANCH  28  30
ENDBRANCH  27  28
ENDBRANCH  26  27
ENDBRANCH  25  26
ENDBRANCH   1  25
BRANCH   1  31
ATOM     31  C   UNL     1      -2.170   1.786   2.424  0.00  0.00    +0.000 C 
BRANCH  31  32
ATOM     32  N   UNL     1      -2.489   2.477   1.162  0.00  0.00    +0.000 N 
ATOM     33  H   UNL     1      -1.836   2.176   0.425  0.00  0.00    +0.000 HD
ATOM     34  H   UNL     1      -2.416   3.495   1.294  0.00  0.00    +0.000 HD
ATOM     35  H   UNL     1      -3.451   2.239   0.880  0.00  0.00    +0.000 HD
ENDBRANCH  31  32
ENDBRANCH   1  31
TORSDOF 12
ENDMDL
MODEL      396
REMARK  Name = ZINC22704725
REMARK  11 active torsions:
REMARK  status: ('A' for Active; 'I' for Inactive)
REMARK    1  A    between atoms: C_1  and  C_2
REMARK    2  A    between atoms: C_2  and  N_3
REMARK    3  A    between atoms: N_3  and  C_4
REMARK    4  A    between atoms: N_3  and  C_6
REMARK    5  A    between atoms: C_4  and  C_5
REMARK    6  A    between atoms: C_6  and  C_7
REMARK    7  A    between atoms: C_7  and  N_8
REMARK    8  A    between atoms: C_9  and  C_11
REMARK    9  A    between atoms: C_15  and  S_17
REMARK   10  A    between atoms: S_17  and  N_20
REMARK   11  A    between atoms: N_20  and  C_21
REMARK                            x       y       z     vdW  Elec       q    Type
REMARK                         _______ _______ _______ _____ _____    ______ ____
ROOT
ATOM      1  C   UNL     1      -1.130  -0.275   4.701  0.00  0.00    +0.000 A 
ATOM      2  C   UNL     1      -0.061  -1.169   4.629  0.00  0.00    +0.000 A 
ATOM      3  C   UNL     1       0.319  -1.877   5.751  0.00  0.00    +0.000 A 
ATOM      4  C   UNL     1      -0.364  -1.709   6.943  0.00  0.00    +0.000 A 
ATOM      5  C   UNL     1      -1.428  -0.827   7.019  0.00  0.00    +0.000 A 
ATOM      6  C   UNL     1      -1.815  -0.110   5.906  0.00  0.00    +0.000 A 
ENDROOT
BRANCH   1   8
ATOM      7  N   UNL     1      -0.877   0.329   2.342  0.00  0.00    +0.000 N 
ATOM      8  C   UNL     1      -1.540   0.491   3.504  0.00  0.00    +0.000 C 
ATOM      9  O   UNL     1      -2.474   1.265   3.568  0.00  0.00    +0.000 OA
ATOM     10  H   UNL     1      -0.085  -0.327   2.288  0.00  0.00    +0.000 HD
BRANCH   7  11
ATOM     11  C   UNL     1      -1.282   1.087   1.156  0.00  0.00    +0.000 C 
BRANCH  11  12
ATOM     12  C   UNL     1      -0.374   0.721  -0.019  0.00  0.00    +0.000 C 
BRANCH  12  13
ATOM     13  N   UNL     1      -0.781   1.481  -1.208  0.00  0.00    +0.000 N 
ATOM     14  H   UNL     1      -1.792   1.341  -1.343  0.00  0.00    +0.000 HD
BRANCH  13  16
ATOM     15  C   UNL     1       0.947   3.166  -0.791  0.00  0.00    +0.000 C 
ATOM     16  C   UNL     1      -0.545   2.919  -1.020  0.00  0.00    +0.000 C 
ENDBRANCH  13  16
BRANCH  13  17
ATOM     17  C   UNL     1      -0.093   0.988  -2.409  0.00  0.00    +0.000 C 
ATOM     18  C   UNL     1      -0.806   1.512  -3.657  0.00  0.00    +0.000 C 
ENDBRANCH  13  17
ENDBRANCH  12  13
ENDBRANCH  11  12
ENDBRANCH   7  11
ENDBRANCH   1   8
BRANCH   5  19
ATOM     19  S   UNL     1      -2.290  -0.621   8.542  0.00  0.00    +0.000 S 
ATOM     20  O   UNL     1      -1.389  -0.999   9.574  0.00  0.00    +0.000 OA
ATOM     21  O   UNL     1      -2.897   0.663   8.494  0.00  0.00    +0.000 OA
BRANCH  19  22
ATOM     22  N   UNL     1      -3.523  -1.726   8.560  0.00  0.00    +0.000 NA
ATOM     23  H   UNL     1      -4.502  -1.407   8.555  0.00  0.00    +0.000 HD
BRANCH  22  24
ATOM     24  C   UNL     1      -3.220  -3.160   8.584  0.00  0.00    +0.000 C 
ATOM     25  C   UNL     1      -3.271  -3.725   7.155  0.00  0.00    +0.000 C 
ATOM     26  C   UNL     1      -3.272  -5.272   7.198  0.00  0.00    +0.000 C 
ATOM     27  S   UNL     1      -4.064  -5.629   8.819  0.00  0.00    +0.000 S 
ATOM     28  O   UNL     1      -3.129  -6.302   9.652  0.00  0.00    +0.000 OA
ATOM     29  O   UNL     1      -5.342  -6.207   8.593  0.00  0.00    +0.000 OA
ATOM     30  C   UNL     1      -4.285  -3.907   9.437  0.00  0.00    +0.000 C 
ENDBRANCH  22  24
ENDBRANCH  19  22
ENDBRANCH   5  19
TORSDOF 9
ENDMDL
MODEL      397
REMARK  Name = ZINC06444932
REMARK  13 active torsions:
REMARK  status: ('A' for Active; 'I' for Inactive)
REMARK    1  A    between atoms: C_1  and  N_2
REMARK    2  A    between atoms: N_7  and  C_10
REMARK    3  A    between atoms: N_11  and  C_18
REMARK    4  A    between atoms: N_14  and  C_15
REMARK    5  A    between atoms: C_15  and  C_16
REMARK    6  A    between atoms: C_16  and  O_17
REMARK    7  A    between atoms: C_18  and  C_19
REMARK    8  A    between atoms: C_19  and  C_20
REMARK    9  A    between atoms: C_19  and  O_30
REMARK   10  A    between atoms: C_20  and  O_21
REMARK   11  A    between atoms: O_21  and  C_22
REMARK   12  A    between atoms: C_25  and  O_28
REMARK   13  A    between atoms: O_28  and  C_29
REMARK                            x       y       z     vdW  Elec       q    Type
REMARK                         _______ _______ _______ _____ _____    ______ ____
ROOT
ATOM      1  C   UNL     1      -2.569   4.118   0.049  0.00  0.00    +0.000 C 
ATOM      2  N   UNL     1      -1.264   3.451   0.033  0.00  0.00    +0.000 N 
ATOM      3  C   UNL     1      -0.102   4.205   0.026  0.00  0.00    +0.000 A 
ATOM      4  C   UNL     1       1.123   3.547   0.010  0.00  0.00    +0.000 A 
ATOM      5  C   UNL     1       1.147   2.141   0.003  0.00  0.00    +0.000 A 
ATOM      6  O   UNL     1       2.209   1.543  -0.011  0.00  0.00    +0.000 OA
ATOM      7  N   UNL     1      -0.018   1.461   0.010  0.00  0.00    +0.000 N 
ATOM      8  C   UNL     1      -1.197   2.107   0.019  0.00  0.00    +0.000 A 
ATOM      9  O   UNL     1      -2.227   1.461   0.020  0.00  0.00    +0.000 OA
ATOM     10  C   UNL     1       0.002  -0.004   0.002  0.00  0.00    +0.000 C 
ATOM     11  N   UNL     1       2.098   4.535   0.006  0.00  0.00    +0.000 N 
ATOM     12  C   UNL     1       1.446   5.728   0.019  0.00  0.00    +0.000 A 
ATOM     13  N   UNL     1       0.146   5.516   0.030  0.00  0.00    +0.000 NA
ATOM     14  N   UNL     1       2.050   6.965   0.019  0.00  0.00    +0.000 N 
ATOM     15  H   UNL     1       3.078   7.036   0.009  0.00  0.00    +0.000 HD
ENDROOT
BRANCH  14  16
ATOM     16  C   UNL     1       1.232   8.180   0.034  0.00  0.00    +0.000 C 
BRANCH  16  17
ATOM     17  C   UNL     1       2.143   9.408   0.031  0.00  0.00    +0.000 C 
BRANCH  17  18
ATOM     18  O   UNL     1       2.872   9.458  -1.198  0.00  0.00    +0.000 OA
ATOM     19  H   UNL     1       2.238   9.516  -1.956  0.00  0.00    +0.000 HD
ENDBRANCH  17  18
ENDBRANCH  16  17
ENDBRANCH  14  16
BRANCH  11  20
ATOM     20  C   UNL     1       3.549   4.332  -0.009  0.00  0.00    +0.000 C 
BRANCH  20  21
ATOM     21  C   UNL     1       4.040   4.269  -1.456  0.00  0.00    +0.000 C 
BRANCH  21  22
ATOM     22  O   UNL     1       3.490   3.116  -2.096  0.00  0.00    +0.000 OA
ATOM     23  H   UNL     1       2.502   3.171  -2.086  0.00  0.00    +0.000 HD
ENDBRANCH  21  22
BRANCH  21  24
ATOM     24  C   UNL     1       5.568   4.183  -1.473  0.00  0.00    +0.000 C 
BRANCH  24  25
ATOM     25  O   UNL     1       6.033   4.241  -2.823  0.00  0.00    +0.000 OA
BRANCH  25  26
ATOM     26  C   UNL     1       7.378   4.176  -3.015  0.00  0.00    +0.000 A 
ATOM     27  C   UNL     1       8.230   4.064  -1.927  0.00  0.00    +0.000 A 
ATOM     28  C   UNL     1       9.595   3.993  -2.123  0.00  0.00    +0.000 A 
ATOM     29  C   UNL     1      10.115   4.044  -3.408  0.00  0.00    +0.000 A 
ATOM     30  C   UNL     1       9.263   4.161  -4.496  0.00  0.00    +0.000 A 
ATOM     31  C   UNL     1       7.897   4.228  -4.300  0.00  0.00    +0.000 A 
BRANCH  29  32
ATOM     32  O   UNL     1      11.460   3.979  -3.600  0.00  0.00    +0.000 OA
ATOM     33  C   UNL     1      12.277   3.859  -2.434  0.00  0.00    +0.000 C 
ENDBRANCH  29  32
ENDBRANCH  25  26
ENDBRANCH  24  25
ENDBRANCH  21  24
ENDBRANCH  20  21
ENDBRANCH  11  20
TORSDOF 10
ENDMDL
MODEL      398
REMARK  Name = ZINC28944994
REMARK  10 active torsions:
REMARK  status: ('A' for Active; 'I' for Inactive)
REMARK    1  A    between atoms: C_3  and  N_4
REMARK    2  A    between atoms: C_5  and  C_25
REMARK    3  A    between atoms: C_8  and  S_9
REMARK    4  A    between atoms: S_9  and  C_10
REMARK    5  A    between atoms: C_10  and  C_11
REMARK    6  A    between atoms: C_11  and  C_13
REMARK    7  A    between atoms: C_14  and  N_24
REMARK    8  A    between atoms: N_15  and  C_21
REMARK    9  A    between atoms: C_25  and  C_26
REMARK   10  A    between atoms: C_26  and  C_27
REMARK                            x       y       z     vdW  Elec       q    Type
REMARK                         _______ _______ _______ _____ _____    ______ ____
ROOT
ATOM      1  C   UNL     1      -0.272   3.682  -2.269  0.00  0.00    +0.000 C 
ENDROOT
BRANCH   1   2
ATOM      2  C   UNL     1       0.034   5.149  -2.433  0.00  0.00    +0.000 C 
ATOM      3  O   UNL     1       1.096   5.498  -2.907  0.00  0.00    +0.000 OA
BRANCH   2   4
ATOM      4  C   UNL     1      -0.914   6.116  -2.037  0.00  0.00    +0.000 A 
ATOM      5  C   UNL     1      -0.609   7.488  -2.069  0.00  0.00    +0.000 A 
ATOM      6  N   UNL     1      -1.561   8.386  -1.681  0.00  0.00    +0.000 N 
ATOM      7  C   UNL     1      -2.771   7.983  -1.261  0.00  0.00    +0.000 A 
ATOM      8  O   UNL     1      -3.582   8.822  -0.922  0.00  0.00    +0.000 OA
ATOM      9  N   UNL     1      -3.117   6.687  -1.203  0.00  0.00    +0.000 N 
ATOM     10  C   UNL     1      -2.250   5.721  -1.570  0.00  0.00    +0.000 A 
ATOM     11  O   UNL     1      -2.567   4.548  -1.517  0.00  0.00    +0.000 OA
ATOM     12  H   UNL     1      -4.058   6.427  -0.874  0.00  0.00    +0.000 HD
BRANCH   5  13
ATOM     13  N   UNL     1       0.614   7.914  -2.487  0.00  0.00    +0.000 N 
ATOM     14  H   UNL     1       1.321   7.224  -2.780  0.00  0.00    +0.000 HD
ATOM     15  H   UNL     1       0.834   8.920  -2.509  0.00  0.00    +0.000 HD
ENDBRANCH   5  13
BRANCH   6  16
ATOM     16  C   UNL     1      -1.255   9.818  -1.718  0.00  0.00    +0.000 C 
ATOM     17  C   UNL     1      -2.262  10.739  -2.409  0.00  0.00    +0.000 C 
ATOM     18  C   UNL     1      -0.919  10.434  -3.077  0.00  0.00    +0.000 C 
ENDBRANCH   6  16
ENDBRANCH   2   4
ENDBRANCH   1   2
BRANCH   1  19
ATOM     19  S   UNL     1       1.130   2.704  -2.864  0.00  0.00    +0.000 S 
BRANCH  19  24
ATOM     20  N   UNL     1       1.167  -0.094  -2.823  0.00  0.00    +0.000 N 
ATOM     21  C   UNL     1       0.312  -1.086  -2.428  0.00  0.00    +0.000 A 
ATOM     22  N   UNL     1      -0.763  -0.511  -1.968  0.00  0.00    +0.000 NA
ATOM     23  N   UNL     1      -0.647   0.767  -2.045  0.00  0.00    +0.000 NA
ATOM     24  C   UNL     1       0.518   1.079  -2.562  0.00  0.00    +0.000 A 
BRANCH  20  27
ATOM     25  C   UNL     1       3.433   0.957  -3.387  0.00  0.00    +0.000 C 
ATOM     26  C   UNL     1       2.802   0.497  -4.703  0.00  0.00    +0.000 C 
ATOM     27  C   UNL     1       2.501  -0.256  -3.406  0.00  0.00    +0.000 C 
ENDBRANCH  20  27
BRANCH  21  28
ATOM     28  C   UNL     1       0.567  -2.569  -2.509  0.00  0.00    +0.000 C 
BRANCH  28  29
ATOM     29  C   UNL     1       0.074  -3.098  -3.857  0.00  0.00    +0.000 C 
BRANCH  29  30
ATOM     30  C   UNL     1       0.328  -4.581  -3.939  0.00  0.00    +0.000 C 
ATOM     31  O   UNL     1       0.852  -5.158  -3.010  0.00  0.00    +0.000 OA
ATOM     32  N   UNL     1      -0.027  -5.266  -5.044  0.00  0.00    +0.000 N 
ATOM     33  H   UNL     1      -0.472  -4.776  -5.833  0.00  0.00    +0.000 HD
ATOM     34  H   UNL     1       0.147  -6.280  -5.099  0.00  0.00    +0.000 HD
ENDBRANCH  29  30
ENDBRANCH  28  29
ENDBRANCH  21  28
ENDBRANCH  19  24
ENDBRANCH   1  19
TORSDOF 10
ENDMDL
MODEL      399
REMARK  Name = ZINC14964419
REMARK  10 active torsions:
REMARK  status: ('A' for Active; 'I' for Inactive)
REMARK    1  A    between atoms: C_1  and  N_28
REMARK    2  A    between atoms: C_2  and  N_28
REMARK    3  A    between atoms: C_3  and  C_4
REMARK    4  A    between atoms: C_3  and  N_28
REMARK    5  A    between atoms: C_4  and  N_5
REMARK    6  A    between atoms: N_5  and  C_6
REMARK    7  A    between atoms: C_11  and  S_12
REMARK    8  A    between atoms: S_12  and  N_15
REMARK    9  A    between atoms: N_15  and  C_16
REMARK   10  A    between atoms: C_21  and  C_22
REMARK                            x       y       z     vdW  Elec       q    Type
REMARK                         _______ _______ _______ _____ _____    ______ ____
ROOT
ATOM      1  S   UNL     1      -1.386  -4.871  -0.505  0.00  0.00    +0.000 S 
ATOM      2  O   UNL     1      -1.228  -6.280  -0.412  0.00  0.00    +0.000 OA
ATOM      3  O   UNL     1      -2.451  -4.181   0.134  0.00  0.00    +0.000 OA
ENDROOT
BRANCH   1   9
ATOM      4  C   UNL     1      -1.590  -3.167  -2.635  0.00  0.00    +0.000 A 
ATOM      5  C   UNL     1      -1.675  -2.870  -3.989  0.00  0.00    +0.000 A 
ATOM      6  C   UNL     1      -1.666  -3.890  -4.920  0.00  0.00    +0.000 A 
ATOM      7  C   UNL     1      -1.572  -5.206  -4.505  0.00  0.00    +0.000 A 
ATOM      8  C   UNL     1      -1.481  -5.504  -3.158  0.00  0.00    +0.000 A 
ATOM      9  C   UNL     1      -1.495  -4.489  -2.221  0.00  0.00    +0.000 A 
BRANCH   4  10
ATOM     10  N   UNL     1      -1.599  -2.137  -1.690  0.00  0.00    +0.000 N 
ATOM     11  H   UNL     1      -1.614  -2.361  -0.685  0.00  0.00    +0.000 HD
BRANCH  10  12
ATOM     12  C   UNL     1      -1.586  -0.740  -2.130  0.00  0.00    +0.000 C 
BRANCH  12  13
ATOM     13  C   UNL     1      -1.476   0.178  -0.911  0.00  0.00    +0.000 C 
BRANCH  13  16
ATOM     14  C   UNL     1      -2.940   1.948  -1.676  0.00  0.00    +0.000 C 
ATOM     15  C   UNL     1      -1.004   2.478  -0.322  0.00  0.00    +0.000 C 
ATOM     16  N   UNL     1      -1.542   1.582  -1.367  0.00  0.00    +0.000 N 
ATOM     17  H   UNL     1      -0.973   1.683  -2.220  0.00  0.00    +0.000 HD
ENDBRANCH  13  16
ENDBRANCH  12  13
ENDBRANCH  10  12
ENDBRANCH   4  10
ENDBRANCH   1   9
BRANCH   1  18
ATOM     18  N   UNL     1       0.019  -4.199   0.058  0.00  0.00    +0.000 N 
ATOM     19  H   UNL     1      -0.017  -3.409   0.719  0.00  0.00    +0.000 HD
BRANCH  18  20
ATOM     20  C   UNL     1       1.244  -4.699  -0.361  0.00  0.00    +0.000 A 
ATOM     21  C   UNL     1       1.404  -5.168  -1.659  0.00  0.00    +0.000 A 
ATOM     22  C   UNL     1       2.622  -5.664  -2.064  0.00  0.00    +0.000 A 
ATOM     23  C   UNL     1       3.708  -5.703  -1.191  0.00  0.00    +0.000 A 
ATOM     24  C   UNL     1       3.571  -5.240   0.093  0.00  0.00    +0.000 A 
ATOM     25  C   UNL     1       2.333  -4.735   0.521  0.00  0.00    +0.000 A 
ATOM     26  C   UNL     1       4.706  -5.240   1.083  0.00  0.00    +0.000 C 
ATOM     27  C   UNL     1       5.816  -6.185   0.629  0.00  0.00    +0.000 C 
ATOM     28  C   UNL     1       6.172  -5.848  -0.824  0.00  0.00    +0.000 C 
ATOM     29  C   UNL     1       5.004  -6.267  -1.715  0.00  0.00    +0.000 C 
BRANCH  25  30
ATOM     30  C   UNL     1       2.177  -4.242   1.901  0.00  0.00    +0.000 C 
ATOM     31  O   UNL     1       1.828  -5.002   2.782  0.00  0.00    +0.000 OA
ATOM     32  O   UNL     1       2.422  -2.947   2.185  0.00  0.00    +0.000 OA
ENDBRANCH  25  30
ENDBRANCH  18  20
ENDBRANCH   1  18
TORSDOF 8
ENDMDL
MODEL      400
REMARK  Name = ZINC32083050
REMARK  12 active torsions:
REMARK  status: ('A' for Active; 'I' for Inactive)
REMARK    1  A    between atoms: C_1  and  C_2
REMARK    2  A    between atoms: C_2  and  O_3
REMARK    3  A    between atoms: O_3  and  C_4
REMARK    4  A    between atoms: C_7  and  C_12
REMARK    5  A    between atoms: C_9  and  O_10
REMARK    6  A    between atoms: O_10  and  C_11
REMARK    7  A    between atoms: N_14  and  N_15
REMARK    8  A    between atoms: N_15  and  S_16
REMARK    9  A    between atoms: S_16  and  C_19
REMARK   10  A    between atoms: C_22  and  O_28
REMARK   11  A    between atoms: C_23  and  C_25
REMARK   12  A    between atoms: O_28  and  C_29
REMARK                            x       y       z     vdW  Elec       q    Type
REMARK                         _______ _______ _______ _____ _____    ______ ____
ROOT
ATOM      1  N   UNL     1      -3.238   4.222  -1.527  0.00  0.00    +0.000 NA
ENDROOT
BRANCH   1   4
ATOM      2  C   UNL     1      -4.590   2.972  -3.038  0.00  0.00    +0.000 C 
ATOM      3  O   UNL     1      -5.482   3.785  -2.890  0.00  0.00    +0.000 OA
ATOM      4  N   UNL     1      -3.423   3.126  -2.380  0.00  0.00    +0.000 N 
ATOM      5  H   UNL     1      -2.668   2.437  -2.504  0.00  0.00    +0.000 HD
BRANCH   2   9
ATOM      6  C   UNL     1      -5.145  -0.354  -5.624  0.00  0.00    +0.000 A 
ATOM      7  C   UNL     1      -3.944  -0.195  -4.946  0.00  0.00    +0.000 A 
ATOM      8  C   UNL     1      -3.759   0.885  -4.110  0.00  0.00    +0.000 A 
ATOM      9  C   UNL     1      -4.785   1.817  -3.936  0.00  0.00    +0.000 A 
ATOM     10  C   UNL     1      -5.993   1.657  -4.618  0.00  0.00    +0.000 A 
ATOM     11  C   UNL     1      -6.170   0.575  -5.458  0.00  0.00    +0.000 A 
BRANCH  11  12
ATOM     12  O   UNL     1      -7.346   0.416  -6.123  0.00  0.00    +0.000 OA
ATOM     13  C   UNL     1      -8.354   1.406  -5.906  0.00  0.00    +0.000 C 
ENDBRANCH  11  12
BRANCH   6  14
ATOM     14  O   UNL     1      -5.320  -1.417  -6.450  0.00  0.00    +0.000 OA
BRANCH  14  16
ATOM     15  C   UNL     1      -4.609  -3.454  -7.539  0.00  0.00    +0.000 C 
ATOM     16  C   UNL     1      -4.228  -2.331  -6.573  0.00  0.00    +0.000 C 
ENDBRANCH  14  16
ENDBRANCH   6  14
ENDBRANCH   2   9
ENDBRANCH   1   4
BRANCH   1  17
ATOM     17  S   UNL     1      -2.793   3.978   0.049  0.00  0.00    +0.000 S 
ATOM     18  O   UNL     1      -3.741   3.077   0.604  0.00  0.00    +0.000 OA
ATOM     19  O   UNL     1      -2.548   5.263   0.605  0.00  0.00    +0.000 OA
BRANCH  17  20
ATOM     20  C   UNL     1      -1.247   3.134   0.030  0.00  0.00    +0.000 A 
ATOM     21  C   UNL     1      -1.218   1.749   0.017  0.00  0.00    +0.000 A 
ATOM     22  C   UNL     1      -0.013   1.076   0.008  0.00  0.00    +0.000 A 
ATOM     23  C   UNL     1       1.180   1.785   0.000  0.00  0.00    +0.000 A 
ATOM     24  C   UNL     1       1.154   3.186   0.008  0.00  0.00    +0.000 A 
ATOM     25  C   UNL     1      -0.072   3.854   0.022  0.00  0.00    +0.000 A 
BRANCH  24  26
ATOM     26  C   UNL     1       2.416   3.951   0.000  0.00  0.00    +0.000 C 
ATOM     27  O   UNL     1       3.482   3.366  -0.012  0.00  0.00    +0.000 OA
ATOM     28  N   UNL     1       2.387   5.298   0.007  0.00  0.00    +0.000 N 
ATOM     29  H   UNL     1       1.484   5.794   0.018  0.00  0.00    +0.000 HD
ATOM     30  H   UNL     1       3.268   5.832   0.002  0.00  0.00    +0.000 HD
ENDBRANCH  24  26
BRANCH  23  31
ATOM     31  O   UNL     1       2.365   1.125  -0.015  0.00  0.00    +0.000 OA
ATOM     32  C   UNL     1       2.312  -0.303  -0.022  0.00  0.00    +0.000 C 
ENDBRANCH  23  31
ENDBRANCH  17  20
ENDBRANCH   1  17
TORSDOF 9
ENDMDL
MODEL      401
REMARK  Name = ZINC29372671
REMARK  12 active torsions:
REMARK  status: ('A' for Active; 'I' for Inactive)
REMARK    1  A    between atoms: C_1  and  C_2
REMARK    2  A    between atoms: C_2  and  O_3
REMARK    3  A    between atoms: O_3  and  C_4
REMARK    4  A    between atoms: C_4  and  C_6
REMARK    5  A    between atoms: C_7  and  C_29
REMARK    6  A    between atoms: C_8  and  C_25
REMARK    7  A    between atoms: C_10  and  N_11
REMARK    8  A    between atoms: C_12  and  C_14
REMARK    9  A    between atoms: C_14  and  C_15
REMARK   10  A    between atoms: C_14  and  N_16
REMARK   11  A    between atoms: C_20  and  C_22
REMARK   12  A    between atoms: N_27  and  C_28
REMARK                            x       y       z     vdW  Elec       q    Type
REMARK                         _______ _______ _______ _____ _____    ______ ____
ROOT
ATOM      1  N   UNL     1      -1.222  -2.356   2.494  0.00  0.00    +0.000 N 
ATOM      2  C   UNL     1      -1.240  -3.222   3.527  0.00  0.00    +0.000 C 
ATOM      3  O   UNL     1      -1.289  -4.415   3.317  0.00  0.00    +0.000 OA
ATOM      4  H   UNL     1      -1.180  -1.343   2.672  0.00  0.00    +0.000 HD
ENDROOT
BRANCH   1   9
ATOM      5  C   UNL     1      -1.248  -2.099   0.003  0.00  0.00    +0.000 A 
ATOM      6  C   UNL     1      -1.287  -2.809  -1.188  0.00  0.00    +0.000 A 
ATOM      7  C   UNL     1      -1.339  -4.174  -1.112  0.00  0.00    +0.000 A 
ATOM      8  S   UNL     1      -1.333  -4.470   0.646  0.00  0.00    +0.000 S 
ATOM      9  C   UNL     1      -1.258  -2.828   1.196  0.00  0.00    +0.000 A 
ATOM     10  C   UNL     1      -1.274  -2.102  -2.519  0.00  0.00    +0.000 C 
BRANCH   7  11
ATOM     11  C   UNL     1      -1.387  -5.149  -2.204  0.00  0.00    +0.000 C 
ATOM     12  O   UNL     1      -1.383  -4.769  -3.360  0.00  0.00    +0.000 OA
ATOM     13  N   UNL     1      -1.435  -6.468  -1.927  0.00  0.00    +0.000 N 
ATOM     14  C   UNL     1      -1.482  -7.443  -3.019  0.00  0.00    +0.000 C 
ATOM     15  H   UNL     1      -1.438  -6.789  -0.949  0.00  0.00    +0.000 HD
ENDBRANCH   7  11
BRANCH   5  16
ATOM     16  C   UNL     1      -1.191  -0.632   0.010  0.00  0.00    +0.000 C 
ATOM     17  O   UNL     1      -2.220   0.016   0.023  0.00  0.00    +0.000 OA
BRANCH  16  18
ATOM     18  O   UNL     1       0.002  -0.004   0.002  0.00  0.00    +0.000 OA
BRANCH  18  20
ATOM     19  C   UNL     1       1.418   1.977  -0.001  0.00  0.00    +0.000 C 
ATOM     20  C   UNL     1      -0.018   1.448   0.010  0.00  0.00    +0.000 C 
ENDBRANCH  18  20
ENDBRANCH  16  18
ENDBRANCH   5  16
ENDBRANCH   1   9
BRANCH   2  21
ATOM     21  C   UNL     1      -1.200  -2.707   4.942  0.00  0.00    +0.000 C 
ATOM     22  C   UNL     1      -2.412  -1.808   5.193  0.00  0.00    +0.000 C 
BRANCH  21  23
ATOM     23  N   UNL     1      -1.230  -3.837   5.874  0.00  0.00    +0.000 N 
ATOM     24  C   UNL     1      -2.261  -4.660   5.851  0.00  0.00    +0.000 A 
ATOM     25  C   UNL     1      -2.332  -5.740   6.712  0.00  0.00    +0.000 A 
ATOM     26  C   UNL     1      -1.303  -5.959   7.610  0.00  0.00    +0.000 A 
ATOM     27  C   UNL     1      -0.222  -5.070   7.611  0.00  0.00    +0.000 A 
ATOM     28  C   UNL     1      -0.224  -4.006   6.707  0.00  0.00    +0.000 A 
BRANCH  27  29
ATOM     29  C   UNL     1       0.905  -5.256   8.549  0.00  0.00    +0.000 C 
ATOM     30  O   UNL     1       1.838  -4.478   8.541  0.00  0.00    +0.000 OA
ATOM     31  N   UNL     1       0.897  -6.290   9.415  0.00  0.00    +0.000 N 
ATOM     32  H   UNL     1       0.106  -6.949   9.422  0.00  0.00    +0.000 HD
ATOM     33  H   UNL     1       1.682  -6.420  10.069  0.00  0.00    +0.000 HD
ENDBRANCH  27  29
ENDBRANCH  21  23
ENDBRANCH   2  21
TORSDOF 8
ENDMDL
MODEL      402
REMARK  Name = ZINC23365452
REMARK  11 active torsions:
REMARK  status: ('A' for Active; 'I' for Inactive)
REMARK    1  A    between atoms: C_1  and  C_2
REMARK    2  A    between atoms: C_5  and  N_27
REMARK    3  A    between atoms: C_6  and  N_9
REMARK    4  A    between atoms: C_7  and  C_8
REMARK    5  A    between atoms: C_10  and  C_12
REMARK    6  A    between atoms: C_12  and  S_13
REMARK    7  A    between atoms: S_13  and  C_14
REMARK    8  A    between atoms: C_17  and  C_24
REMARK    9  A    between atoms: N_18  and  C_19
REMARK   10  A    between atoms: C_19  and  C_20
REMARK   11  A    between atoms: C_20  and  C_21
REMARK                            x       y       z     vdW  Elec       q    Type
REMARK                         _______ _______ _______ _____ _____    ______ ____
ROOT
ATOM      1  C   UNL     1       3.612   2.031   3.500  0.00  0.00    +0.000 C 
ENDROOT
BRANCH   1   3
ATOM      2  N   UNL     1       1.413   1.813   2.388  0.00  0.00    +0.000 N 
ATOM      3  C   UNL     1       2.121   2.244   3.451  0.00  0.00    +0.000 C 
ATOM      4  O   UNL     1       1.558   2.804   4.368  0.00  0.00    +0.000 OA
ATOM      5  H   UNL     1       1.897   1.385   1.586  0.00  0.00    +0.000 HD
BRANCH   2  11
ATOM      6  C   UNL     1      -2.942   0.971   4.509  0.00  0.00    +0.000 C 
ATOM      7  C   UNL     1      -2.115   1.550   3.390  0.00  0.00    +0.000 A 
ATOM      8  C   UNL     1      -2.734   2.216   2.347  0.00  0.00    +0.000 A 
ATOM      9  C   UNL     1      -1.979   2.743   1.315  0.00  0.00    +0.000 A 
ATOM     10  C   UNL     1      -0.604   2.611   1.326  0.00  0.00    +0.000 A 
ATOM     11  C   UNL     1       0.020   1.948   2.374  0.00  0.00    +0.000 A 
ATOM     12  C   UNL     1      -0.741   1.420   3.409  0.00  0.00    +0.000 A 
ATOM     13  C   UNL     1      -0.067   0.700   4.549  0.00  0.00    +0.000 C 
BRANCH  10  14
ATOM     14  N   UNL     1       0.203   3.176   0.222  0.00  0.00    +0.000 N 
ATOM     15  O   UNL     1      -0.333   3.844  -0.645  0.00  0.00    +0.000 OA
ATOM     16  O   UNL     1       1.403   2.974   0.179  0.00  0.00    +0.000 OA
ENDBRANCH  10  14
ENDBRANCH   2  11
ENDBRANCH   1   3
BRANCH   1  17
ATOM     17  S   UNL     1       4.269   2.715   5.041  0.00  0.00    +0.000 S 
BRANCH  17  18
ATOM     18  C   UNL     1       5.979   2.338   4.839  0.00  0.00    +0.000 A 
ATOM     19  N   UNL     1       6.527   1.726   3.815  0.00  0.00    +0.000 NA
ATOM     20  N   UNL     1       7.795   1.618   3.999  0.00  0.00    +0.000 NA
ATOM     21  C   UNL     1       8.128   2.149   5.141  0.00  0.00    +0.000 A 
ATOM     22  N   UNL     1       6.984   2.632   5.715  0.00  0.00    +0.000 N 
BRANCH  21  23
ATOM     23  C   UNL     1       9.517   2.223   5.720  0.00  0.00    +0.000 C 
ATOM     24  C   UNL     1      10.681   1.808   4.818  0.00  0.00    +0.000 C 
ATOM     25  C   UNL     1      10.248   0.902   5.973  0.00  0.00    +0.000 C 
ENDBRANCH  21  23
BRANCH  22  26
ATOM     26  C   UNL     1       6.862   3.318   7.003  0.00  0.00    +0.000 C 
BRANCH  26  27
ATOM     27  C   UNL     1       6.619   2.289   8.108  0.00  0.00    +0.000 C 
BRANCH  27  28
ATOM     28  C   UNL     1       6.494   2.996   9.434  0.00  0.00    +0.000 C 
ATOM     29  O   UNL     1       6.590   4.204   9.488  0.00  0.00    +0.000 OA
ATOM     30  N   UNL     1       6.275   2.286  10.558  0.00  0.00    +0.000 N 
ATOM     31  H   UNL     1       6.193   1.260  10.511  0.00  0.00    +0.000 HD
ATOM     32  H   UNL     1       6.189   2.769  11.464  0.00  0.00    +0.000 HD
ENDBRANCH  27  28
ENDBRANCH  26  27
ENDBRANCH  22  26
ENDBRANCH  17  18
ENDBRANCH   1  17
TORSDOF 9
ENDMDL
MODEL      403
REMARK  Name = ZINC04474059
REMARK  13 active torsions:
REMARK  status: ('A' for Active; 'I' for Inactive)
REMARK    1  A    between atoms: C_1  and  O_2
REMARK    2  A    between atoms: O_2  and  C_3
REMARK    3  A    between atoms: C_3  and  C_4
REMARK    4  A    between atoms: C_4  and  O_5
REMARK    5  A    between atoms: O_5  and  C_6
REMARK    6  A    between atoms: C_6  and  C_8
REMARK    7  A    between atoms: C_9  and  C_28
REMARK    8  A    between atoms: C_11  and  N_27
REMARK    9  A    between atoms: C_12  and  C_23
REMARK   10  A    between atoms: C_23  and  O_25
REMARK   11  A    between atoms: O_25  and  C_26
REMARK   12  A    between atoms: C_28  and  O_29
REMARK   13  A    between atoms: O_29  and  C_30
REMARK                            x       y       z     vdW  Elec       q    Type
REMARK                         _______ _______ _______ _____ _____    ______ ____
ROOT
ATOM      1  C   UNL     1      -4.277   0.847   4.698  0.00  0.00    +0.000 C 
ATOM      2  C   UNL     1      -5.074   1.209   5.712  0.00  0.00    +0.000 C 
ATOM      3  O   UNL     1      -6.353   0.814   5.794  0.00  0.00    +0.000 OA
ATOM      4  C   UNL     1      -6.769  -0.244   5.079  0.00  0.00    +0.000 C 
ATOM      5  C   UNL     1      -6.065  -0.708   4.013  0.00  0.00    +0.000 C 
ATOM      6  C   UNL     1      -4.783  -0.044   3.601  0.00  0.00    +0.000 C 
ATOM      7  C   UNL     1      -4.978   0.741   2.329  0.00  0.00    +0.000 A 
ATOM      8  C   UNL     1      -5.779   1.810   1.997  0.00  0.00    +0.000 A 
ATOM      9  C   UNL     1      -5.740   2.332   0.716  0.00  0.00    +0.000 A 
ATOM     10  C   UNL     1      -4.896   1.776  -0.228  0.00  0.00    +0.000 A 
ATOM     11  C   UNL     1      -4.092   0.705   0.101  0.00  0.00    +0.000 A 
ATOM     12  C   UNL     1      -4.125   0.174   1.389  0.00  0.00    +0.000 A 
ATOM     13  N   UNL     1      -3.419  -0.888   1.956  0.00  0.00    +0.000 N 
ATOM     14  C   UNL     1      -3.745  -1.083   3.247  0.00  0.00    +0.000 C 
ATOM     15  O   UNL     1      -3.291  -1.931   3.986  0.00  0.00    +0.000 OA
ATOM     16  H   UNL     1      -2.729  -1.457   1.446  0.00  0.00    +0.000 HD
ENDROOT
BRANCH   4  17
ATOM     17  N   UNL     1      -7.933  -0.872   5.434  0.00  0.00    +0.000 N 
ATOM     18  H   UNL     1      -8.485  -0.540   6.238  0.00  0.00    +0.000 HD
ATOM     19  H   UNL     1      -8.258  -1.684   4.890  0.00  0.00    +0.000 HD
ENDBRANCH   4  17
BRANCH   1  20
ATOM     20  C   UNL     1      -2.937   1.305   4.665  0.00  0.00    +0.000 C 
ATOM     21  O   UNL     1      -2.618   2.196   3.900  0.00  0.00    +0.000 OA
BRANCH  20  22
ATOM     22  O   UNL     1      -2.014   0.754   5.480  0.00  0.00    +0.000 OA
BRANCH  22  23
ATOM     23  C   UNL     1      -0.682   1.265   5.393  0.00  0.00    +0.000 C 
BRANCH  23  24
ATOM     24  C   UNL     1       0.215   0.523   6.385  0.00  0.00    +0.000 C 
BRANCH  24  26
ATOM     25  C   UNL     1       1.132  -1.637   6.871  0.00  0.00    +0.000 C 
ATOM     26  O   UNL     1       0.312  -0.851   6.005  0.00  0.00    +0.000 OA
ENDBRANCH  24  26
ENDBRANCH  23  24
ENDBRANCH  22  23
ENDBRANCH  20  22
ENDBRANCH   1  20
BRANCH   5  27
ATOM     27  C   UNL     1      -6.541  -1.814   3.291  0.00  0.00    +0.000 C 
ATOM     28  O   UNL     1      -7.632  -2.288   3.553  0.00  0.00    +0.000 OA
BRANCH  27  29
ATOM     29  O   UNL     1      -5.789  -2.352   2.307  0.00  0.00    +0.000 OA
ATOM     30  C   UNL     1      -6.335  -3.476   1.614  0.00  0.00    +0.000 C 
ENDBRANCH  27  29
ENDBRANCH   5  27
BRANCH   2  31
ATOM     31  C   UNL     1      -4.516   2.096   6.795  0.00  0.00    +0.000 C 
BRANCH  31  32
ATOM     32  O   UNL     1      -5.182   3.361   6.765  0.00  0.00    +0.000 OA
ATOM     33  C   UNL     1      -4.725   4.282   7.758  0.00  0.00    +0.000 C 
ENDBRANCH  31  32
ENDBRANCH   2  31
TORSDOF 10
ENDMDL
MODEL      404
REMARK  Name = ZINC15686069
REMARK  12 active torsions:
REMARK  status: ('A' for Active; 'I' for Inactive)
REMARK    1  A    between atoms: C_1  and  C_2
REMARK    2  A    between atoms: C_5  and  C_18
REMARK    3  A    between atoms: C_7  and  S_8
REMARK    4  A    between atoms: S_8  and  N_11
REMARK    5  A    between atoms: N_11  and  C_12
REMARK    6  A    between atoms: N_11  and  C_15
REMARK    7  A    between atoms: C_12  and  C_13
REMARK    8  A    between atoms: C_13  and  O_14
REMARK    9  A    between atoms: C_15  and  C_16
REMARK   10  A    between atoms: C_16  and  O_17
REMARK   11  A    between atoms: N_20  and  C_21
REMARK   12  A    between atoms: C_24  and  C_27
REMARK                            x       y       z     vdW  Elec       q    Type
REMARK                         _______ _______ _______ _____ _____    ______ ____
ROOT
ATOM      1  C   UNL     1      -4.726  -3.135   0.323  0.00  0.00    +0.000 C 
ATOM      2  C   UNL     1      -3.367  -2.484   0.314  0.00  0.00    +0.000 A 
ATOM      3  C   UNL     1      -3.264  -1.106   0.243  0.00  0.00    +0.000 A 
ATOM      4  C   UNL     1      -2.023  -0.503   0.239  0.00  0.00    +0.000 A 
ATOM      5  C   UNL     1      -0.870  -1.288   0.295  0.00  0.00    +0.000 A 
ATOM      6  C   UNL     1      -0.981  -2.678   0.366  0.00  0.00    +0.000 A 
ATOM      7  C   UNL     1      -2.228  -3.267   0.375  0.00  0.00    +0.000 A 
ENDROOT
BRANCH   5   8
ATOM      8  C   UNL     1       0.464  -0.650   0.285  0.00  0.00    +0.000 C 
ATOM      9  O   UNL     1       1.466  -1.335   0.339  0.00  0.00    +0.000 OA
ATOM     10  N   UNL     1       0.568   0.692   0.216  0.00  0.00    +0.000 N 
ATOM     11  H   UNL     1      -0.278   1.269   0.100  0.00  0.00    +0.000 HD
BRANCH  10  12
ATOM     12  C   UNL     1       1.819   1.299   0.303  0.00  0.00    +0.000 A 
ATOM     13  C   UNL     1       2.930   0.683  -0.264  0.00  0.00    +0.000 A 
ATOM     14  C   UNL     1       4.167   1.283  -0.186  0.00  0.00    +0.000 A 
ATOM     15  C   UNL     1       4.307   2.507   0.475  0.00  0.00    +0.000 A 
ATOM     16  C   UNL     1       3.189   3.120   1.048  0.00  0.00    +0.000 A 
ATOM     17  C   UNL     1       1.955   2.518   0.961  0.00  0.00    +0.000 A 
BRANCH  15  18
ATOM     18  C   UNL     1       5.631   3.150   0.566  0.00  0.00    +0.000 C 
ATOM     19  O   UNL     1       5.751   4.214   1.139  0.00  0.00    +0.000 OA
ATOM     20  O   UNL     1       6.707   2.557   0.012  0.00  0.00    +0.000 OA
ENDBRANCH  15  18
ENDBRANCH  10  12
ENDBRANCH   5   8
BRANCH   7  21
ATOM     21  S   UNL     1      -2.371  -5.021   0.465  0.00  0.00    +0.000 S 
ATOM     22  O   UNL     1      -3.285  -5.407  -0.553  0.00  0.00    +0.000 OA
ATOM     23  O   UNL     1      -1.048  -5.533   0.535  0.00  0.00    +0.000 OA
BRANCH  21  24
ATOM     24  N   UNL     1      -3.094  -5.380   1.911  0.00  0.00    +0.000 NA
BRANCH  24  25
ATOM     25  C   UNL     1      -4.532  -5.658   1.962  0.00  0.00    +0.000 C 
BRANCH  25  26
ATOM     26  C   UNL     1      -4.759  -7.171   1.946  0.00  0.00    +0.000 C 
BRANCH  26  27
ATOM     27  O   UNL     1      -4.220  -7.746   3.138  0.00  0.00    +0.000 OA
ATOM     28  H   UNL     1      -4.670  -7.354   3.928  0.00  0.00    +0.000 HD
ENDBRANCH  26  27
ENDBRANCH  25  26
ENDBRANCH  24  25
BRANCH  24  29
ATOM     29  C   UNL     1      -2.296  -5.419   3.139  0.00  0.00    +0.000 C 
BRANCH  29  30
ATOM     30  C   UNL     1      -2.384  -4.066   3.848  0.00  0.00    +0.000 C 
BRANCH  30  31
ATOM     31  O   UNL     1      -3.728  -3.840   4.277  0.00  0.00    +0.000 OA
ATOM     32  H   UNL     1      -4.001  -4.557   4.902  0.00  0.00    +0.000 HD
ENDBRANCH  30  31
ENDBRANCH  29  30
ENDBRANCH  24  29
ENDBRANCH  21  24
ENDBRANCH   7  21
TORSDOF 11
ENDMDL
MODEL      405
REMARK  Name = ZINC23280832
REMARK  13 active torsions:
REMARK  status: ('A' for Active; 'I' for Inactive)
REMARK    1  A    between atoms: C_1  and  C_2
REMARK    2  A    between atoms: C_2  and  N_3
REMARK    3  A    between atoms: N_3  and  C_4
REMARK    4  A    between atoms: N_3  and  S_6
REMARK    5  A    between atoms: C_4  and  C_5
REMARK    6  A    between atoms: S_6  and  C_9
REMARK    7  A    between atoms: C_12  and  C_14
REMARK    8  A    between atoms: C_14  and  N_15
REMARK    9  A    between atoms: C_16  and  C_18
REMARK   10  A    between atoms: C_18  and  S_19
REMARK   11  A    between atoms: S_19  and  C_20
REMARK   12  A    between atoms: C_23  and  C_26
REMARK   13  A    between atoms: N_24  and  N_25
REMARK                            x       y       z     vdW  Elec       q    Type
REMARK                         _______ _______ _______ _____ _____    ______ ____
ROOT
ATOM      1  N   UNL     1       5.866  -2.900  -0.070  0.00  0.00    +0.000 N 
ATOM      2  C   UNL     1       4.518  -2.924  -0.057  0.00  0.00    +0.000 C 
ATOM      3  O   UNL     1       3.930  -3.985  -0.057  0.00  0.00    +0.000 OA
ATOM      4  H   UNL     1       6.365  -1.999  -0.069  0.00  0.00    +0.000 HD
ENDROOT
BRANCH   2   5
ATOM      5  C   UNL     1       3.742  -1.632  -0.042  0.00  0.00    +0.000 C 
BRANCH   5   6
ATOM      6  S   UNL     1       1.968  -1.995  -0.027  0.00  0.00    +0.000 S 
BRANCH   6   7
ATOM      7  C   UNL     1       1.321  -0.356  -0.013  0.00  0.00    +0.000 A 
ATOM      8  N   UNL     1       2.016   0.758  -0.013  0.00  0.00    +0.000 NA
ATOM      9  N   UNL     1       1.222   1.768  -0.000  0.00  0.00    +0.000 NA
ATOM     10  C   UNL     1      -0.017   1.363   0.009  0.00  0.00    +0.000 A 
ATOM     11  N   UNL     1       0.002  -0.004   0.002  0.00  0.00    +0.000 N 
ATOM     12  C   UNL     1      -1.242   2.240   0.020  0.00  0.00    +0.000 C 
BRANCH  11  13
ATOM     13  N   UNL     1      -1.075  -0.844   0.008  0.00  0.00    +0.000 N 
ATOM     14  H   UNL     1      -0.844  -1.847   0.001  0.00  0.00    +0.000 HD
ATOM     15  H   UNL     1      -2.053  -0.518   0.019  0.00  0.00    +0.000 HD
ENDBRANCH  11  13
ENDBRANCH   6   7
ENDBRANCH   5   6
ENDBRANCH   2   5
BRANCH   1  16
ATOM     16  C   UNL     1       6.620  -4.155  -0.084  0.00  0.00    +0.000 C 
BRANCH  16  20
ATOM     17  C   UNL     1      10.695  -3.321  -0.587  0.00  0.00    +0.000 A 
ATOM     18  C   UNL     1      10.275  -3.415   0.698  0.00  0.00    +0.000 A 
ATOM     19  C   UNL     1       8.943  -3.688   0.950  0.00  0.00    +0.000 A 
ATOM     20  C   UNL     1       8.097  -3.853  -0.096  0.00  0.00    +0.000 A 
ATOM     21  S   UNL     1       9.187  -3.629  -1.492  0.00  0.00    +0.000 S 
BRANCH  17  22
ATOM     22  S   UNL     1      12.311  -2.987  -1.205  0.00  0.00    +0.000 S 
ATOM     23  O   UNL     1      12.144  -2.450  -2.510  0.00  0.00    +0.000 OA
ATOM     24  O   UNL     1      13.003  -2.291  -0.177  0.00  0.00    +0.000 OA
BRANCH  22  25
ATOM     25  N   UNL     1      13.076  -4.444  -1.387  0.00  0.00    +0.000 NA
BRANCH  25  27
ATOM     26  C   UNL     1      14.189  -4.838  -3.529  0.00  0.00    +0.000 C 
ATOM     27  C   UNL     1      12.977  -5.170  -2.656  0.00  0.00    +0.000 C 
ENDBRANCH  25  27
BRANCH  25  28
ATOM     28  C   UNL     1      13.852  -5.008  -0.280  0.00  0.00    +0.000 C 
ATOM     29  C   UNL     1      12.976  -5.981   0.513  0.00  0.00    +0.000 C 
ENDBRANCH  25  28
ENDBRANCH  22  25
ENDBRANCH  17  22
ENDBRANCH  16  20
ENDBRANCH   1  16
TORSDOF 10
ENDMDL
MODEL      406
REMARK  Name = ZINC16228698
REMARK  12 active torsions:
REMARK  status: ('A' for Active; 'I' for Inactive)
REMARK    1  A    between atoms: C_1  and  C_2
REMARK    2  A    between atoms: C_2  and  C_3
REMARK    3  A    between atoms: C_2  and  N_6
REMARK    4  A    between atoms: C_3  and  O_4
REMARK    5  A    between atoms: O_4  and  C_5
REMARK    6  A    between atoms: N_6  and  C_7
REMARK    7  A    between atoms: C_7  and  N_9
REMARK    8  A    between atoms: N_9  and  N_10
REMARK    9  A    between atoms: C_11  and  C_13
REMARK   10  A    between atoms: C_15  and  S_19
REMARK   11  A    between atoms: N_17  and  C_18
REMARK   12  A    between atoms: S_19  and  N_22
REMARK                            x       y       z     vdW  Elec       q    Type
REMARK                         _______ _______ _______ _____ _____    ______ ____
ROOT
ATOM      1  N   UNL     1      -6.124  -1.444   2.731  0.00  0.00    +0.000 N 
ATOM      2  C   UNL     1      -5.581  -1.129   1.538  0.00  0.00    +0.000 C 
ATOM      3  O   UNL     1      -4.493  -0.587   1.489  0.00  0.00    +0.000 OA
ATOM      4  H   UNL     1      -7.081  -1.823   2.777  0.00  0.00    +0.000 HD
ENDROOT
BRANCH   2   5
ATOM      5  C   UNL     1      -6.302  -1.440   0.299  0.00  0.00    +0.000 A 
ATOM      6  C   UNL     1      -7.573  -1.966   0.206  0.00  0.00    +0.000 A 
ATOM      7  C   UNL     1      -7.864  -2.097  -1.156  0.00  0.00    +0.000 A 
ATOM      8  C   UNL     1      -6.787  -1.667  -1.855  0.00  0.00    +0.000 A 
ATOM      9  N   UNL     1      -5.830  -1.265  -0.982  0.00  0.00    +0.000 N 
ATOM     10  C   UNL     1      -4.514  -0.734  -1.343  0.00  0.00    +0.000 C 
BRANCH   7  11
ATOM     11  S   UNL     1      -9.364  -2.719  -1.841  0.00  0.00    +0.000 S 
ATOM     12  O   UNL     1     -10.372  -2.521  -0.858  0.00  0.00    +0.000 OA
ATOM     13  O   UNL     1      -9.464  -2.183  -3.153  0.00  0.00    +0.000 OA
BRANCH  11  14
ATOM     14  N   UNL     1      -9.184  -4.356  -2.011  0.00  0.00    +0.000 NA
ATOM     15  C   UNL     1      -8.647  -4.934  -3.253  0.00  0.00    +0.000 C 
ATOM     16  C   UNL     1      -7.512  -5.901  -2.881  0.00  0.00    +0.000 C 
ATOM     17  O   UNL     1      -7.989  -6.829  -1.904  0.00  0.00    +0.000 OA
ATOM     18  C   UNL     1      -8.386  -6.228  -0.669  0.00  0.00    +0.000 C 
ATOM     19  C   UNL     1      -9.560  -5.277  -0.926  0.00  0.00    +0.000 C 
ENDBRANCH  11  14
ENDBRANCH   7  11
ENDBRANCH   2   5
BRANCH   1  20
ATOM     20  N   UNL     1      -5.388  -1.256   3.907  0.00  0.00    +0.000 N 
ATOM     21  H   UNL     1      -4.431  -0.877   3.861  0.00  0.00    +0.000 HD
BRANCH  20  22
ATOM     22  C   UNL     1      -5.931  -1.571   5.100  0.00  0.00    +0.000 C 
ATOM     23  S   UNL     1      -5.030  -1.341   6.538  0.00  0.00    +0.000 S 
BRANCH  22  24
ATOM     24  N   UNL     1      -7.183  -2.067   5.161  0.00  0.00    +0.000 N 
ATOM     25  H   UNL     1      -7.724  -2.205   4.295  0.00  0.00    +0.000 HD
BRANCH  24  27
ATOM     26  C   UNL     1      -7.350  -3.825   6.852  0.00  0.00    +0.000 C 
ATOM     27  C   UNL     1      -7.773  -2.409   6.457  0.00  0.00    +0.000 C 
BRANCH  27  28
ATOM     28  C   UNL     1      -9.298  -2.341   6.357  0.00  0.00    +0.000 C 
BRANCH  28  29
ATOM     29  O   UNL     1      -9.761  -3.347   5.453  0.00  0.00    +0.000 OA
ATOM     30  C   UNL     1     -11.180  -3.370   5.287  0.00  0.00    +0.000 C 
ENDBRANCH  28  29
ENDBRANCH  27  28
ENDBRANCH  24  27
ENDBRANCH  22  24
ENDBRANCH  20  22
ENDBRANCH   1  20
TORSDOF 9
ENDMDL
MODEL      407
REMARK  Name = ZINC24333428
REMARK  11 active torsions:
REMARK  status: ('A' for Active; 'I' for Inactive)
REMARK    1  A    between atoms: C_1  and  C_2
REMARK    2  A    between atoms: C_2  and  O_3
REMARK    3  A    between atoms: O_3  and  C_4
REMARK    4  A    between atoms: C_4  and  C_6
REMARK    5  A    between atoms: C_7  and  C_14
REMARK    6  A    between atoms: C_12  and  C_13
REMARK    7  A    between atoms: C_14  and  S_15
REMARK    8  A    between atoms: S_15  and  C_16
REMARK    9  A    between atoms: C_16  and  C_17
REMARK   10  A    between atoms: N_19  and  C_20
REMARK   11  A    between atoms: C_20  and  C_21
REMARK                            x       y       z     vdW  Elec       q    Type
REMARK                         _______ _______ _______ _____ _____    ______ ____
ROOT
ATOM      1  C   UNL     1      -8.134   2.815   5.268  0.00  0.00    +0.000 C 
ENDROOT
BRANCH   1   3
ATOM      2  C   UNL     1     -10.001   1.200   5.329  0.00  0.00    +0.000 C 
ATOM      3  C   UNL     1      -9.605   2.487   5.233  0.00  0.00    +0.000 C 
ATOM      4  N   UNL     1     -10.515   3.498   5.112  0.00  0.00    +0.000 N 
ATOM      5  C   UNL     1     -11.839   3.303   5.066  0.00  0.00    +0.000 C 
ATOM      6  O   UNL     1     -12.572   4.266   4.951  0.00  0.00    +0.000 OA
ATOM      7  N   UNL     1     -12.386   2.074   5.150  0.00  0.00    +0.000 N 
ATOM      8  C   UNL     1     -11.489   0.915   5.289  0.00  0.00    +0.000 C 
ATOM      9  C   UNL     1     -11.757  -0.033   4.119  0.00  0.00    +0.000 C 
ATOM     10  H   UNL     1     -10.164   4.464   5.052  0.00  0.00    +0.000 HD
ATOM     11  H   UNL     1     -13.408   1.948   5.117  0.00  0.00    +0.000 HD
BRANCH   2  12
ATOM     12  C   UNL     1      -9.059   0.152   5.460  0.00  0.00    +0.000 C 
ATOM     13  O   UNL     1      -8.855  -0.349   6.550  0.00  0.00    +0.000 OA
BRANCH  12  14
ATOM     14  O   UNL     1      -8.387  -0.290   4.377  0.00  0.00    +0.000 OA
BRANCH  14  16
ATOM     15  C   UNL     1      -6.792  -1.715   3.251  0.00  0.00    +0.000 C 
ATOM     16  C   UNL     1      -7.451  -1.350   4.583  0.00  0.00    +0.000 C 
ENDBRANCH  14  16
ENDBRANCH  12  14
ENDBRANCH   2  12
ENDBRANCH   1   3
BRANCH   1  17
ATOM     17  S   UNL     1      -7.566   3.222   3.594  0.00  0.00    +0.000 S 
BRANCH  17  18
ATOM     18  C   UNL     1      -5.801   3.587   3.807  0.00  0.00    +0.000 C 
BRANCH  18  19
ATOM     19  C   UNL     1      -5.199   3.946   2.473  0.00  0.00    +0.000 C 
ATOM     20  O   UNL     1      -5.891   3.954   1.477  0.00  0.00    +0.000 OA
ATOM     21  N   UNL     1      -3.890   4.257   2.387  0.00  0.00    +0.000 N 
ATOM     22  H   UNL     1      -3.302   4.249   3.232  0.00  0.00    +0.000 HD
BRANCH  21  23
ATOM     23  C   UNL     1      -3.304   4.605   1.090  0.00  0.00    +0.000 C 
BRANCH  23  24
ATOM     24  C   UNL     1      -1.838   4.908   1.266  0.00  0.00    +0.000 A 
ATOM     25  N   UNL     1      -1.316   6.079   1.527  0.00  0.00    +0.000 NA
ATOM     26  N   UNL     1      -0.036   5.987   1.615  0.00  0.00    +0.000 NA
ATOM     27  C   UNL     1       0.331   4.732   1.413  0.00  0.00    +0.000 A 
ATOM     28  N   UNL     1      -0.816   4.014   1.185  0.00  0.00    +0.000 N 
ATOM     29  C   UNL     1      -0.755   2.674   0.936  0.00  0.00    +0.000 A 
ATOM     30  C   UNL     1       0.432   2.034   0.921  0.00  0.00    +0.000 A 
ATOM     31  C   UNL     1       1.625   2.742   1.151  0.00  0.00    +0.000 A 
ATOM     32  C   UNL     1       1.579   4.079   1.395  0.00  0.00    +0.000 A 
ENDBRANCH  23  24
ENDBRANCH  21  23
ENDBRANCH  18  19
ENDBRANCH  17  18
ENDBRANCH   1  17
TORSDOF 9
ENDMDL
MODEL      408
REMARK  Name = ZINC21993044
REMARK  9 active torsions:
REMARK  status: ('A' for Active; 'I' for Inactive)
REMARK    1  A    between atoms: C_1  and  O_2
REMARK    2  A    between atoms: O_2  and  N_3
REMARK    3  A    between atoms: C_4  and  C_5
REMARK    4  A    between atoms: C_4  and  C_10
REMARK    5  A    between atoms: N_12  and  C_13
REMARK    6  A    between atoms: C_17  and  C_26
REMARK    7  A    between atoms: C_18  and  C_21
REMARK    8  A    between atoms: C_21  and  O_22
REMARK    9  A    between atoms: O_22  and  C_23
REMARK                            x       y       z     vdW  Elec       q    Type
REMARK                         _______ _______ _______ _____ _____    ______ ____
ROOT
ATOM      1  C   UNL     1      -0.944   2.485   0.070  0.00  0.00    +0.000 C 
ATOM      2  C   UNL     1       0.168   3.257   0.805  0.00  0.00    +0.000 C 
ATOM      3  C   UNL     1       1.090   2.350  -0.015  0.00  0.00    +0.000 C 
ATOM      4  N   UNL     1      -0.017   1.367  -0.009  0.00  0.00    +0.000 N 
ATOM      5  C   UNL     1       0.016  -0.025  -0.001  0.00  0.00    +0.000 C 
ATOM      6  C   UNL     1       1.147  -0.660   0.259  0.00  0.00    +0.000 C 
ATOM      7  C   UNL     1       2.489  -0.088   0.522  0.00  0.00    +0.000 C 
ATOM      8  S   UNL     1       2.493   1.674   0.916  0.00  0.00    +0.000 S 
ENDROOT
BRANCH   1  11
ATOM      9  C   UNL     1      -3.313   1.976   0.327  0.00  0.00    +0.000 C 
ATOM     10  O   UNL     1      -3.416   1.985  -0.884  0.00  0.00    +0.000 OA
ATOM     11  N   UNL     1      -2.118   2.214   0.903  0.00  0.00    +0.000 N 
ATOM     12  H   UNL     1      -2.031   2.207   1.929  0.00  0.00    +0.000 HD
BRANCH   9  14
ATOM     13  N   UNL     1      -4.391   1.692   2.469  0.00  0.00    +0.000 NA
ATOM     14  C   UNL     1      -4.501   1.702   1.169  0.00  0.00    +0.000 C 
BRANCH  14  15
ATOM     15  C   UNL     1      -5.807   1.441   0.539  0.00  0.00    +0.000 A 
ATOM     16  C   UNL     1      -6.973   1.177   1.193  0.00  0.00    +0.000 A 
ATOM     17  C   UNL     1      -7.959   0.993   0.206  0.00  0.00    +0.000 A 
ATOM     18  C   UNL     1      -7.356   1.151  -0.990  0.00  0.00    +0.000 A 
ATOM     19  O   UNL     1      -6.058   1.428  -0.785  0.00  0.00    +0.000 OA
ENDBRANCH  14  15
BRANCH  13  21
ATOM     20  C   UNL     1      -5.260   1.451   4.678  0.00  0.00    +0.000 C 
ATOM     21  O   UNL     1      -5.526   1.431   3.274  0.00  0.00    +0.000 OA
ENDBRANCH  13  21
ENDBRANCH   9  14
ENDBRANCH   1  11
BRANCH   5  22
ATOM     22  C   UNL     1      -1.212  -0.792  -0.281  0.00  0.00    +0.000 C 
ATOM     23  O   UNL     1      -2.272  -0.213  -0.418  0.00  0.00    +0.000 OA
ATOM     24  O   UNL     1      -1.159  -2.134  -0.386  0.00  0.00    +0.000 OA
ENDBRANCH   5  22
BRANCH   6  25
ATOM     25  C   UNL     1       1.060  -2.165   0.292  0.00  0.00    +0.000 C 
BRANCH  25  26
ATOM     26  O   UNL     1       2.340  -2.715   0.698  0.00  0.00    +0.000 OA
BRANCH  26  27
ATOM     27  C   UNL     1       2.404  -4.048   0.878  0.00  0.00    +0.000 C 
ATOM     28  O   UNL     1       1.443  -4.743   0.612  0.00  0.00    +0.000 OA
ATOM     29  N   UNL     1       3.532  -4.611   1.353  0.00  0.00    +0.000 N 
ATOM     30  H   UNL     1       4.346  -4.022   1.578  0.00  0.00    +0.000 HD
ATOM     31  H   UNL     1       3.580  -5.631   1.490  0.00  0.00    +0.000 HD
ENDBRANCH  26  27
ENDBRANCH  25  26
ENDBRANCH   6  25
TORSDOF 8
ENDMDL
MODEL      409
REMARK  Name = ZINC26175070
REMARK  11 active torsions:
REMARK  status: ('A' for Active; 'I' for Inactive)
REMARK    1  A    between atoms: C_1  and  O_2
REMARK    2  A    between atoms: O_2  and  C_3
REMARK    3  A    between atoms: C_6  and  N_26
REMARK    4  A    between atoms: C_8  and  N_9
REMARK    5  A    between atoms: C_10  and  C_12
REMARK    6  A    between atoms: C_12  and  C_13
REMARK    7  A    between atoms: C_13  and  N_14
REMARK    8  A    between atoms: C_19  and  C_20
REMARK    9  A    between atoms: C_20  and  N_21
REMARK   10  A    between atoms: N_21  and  S_22
REMARK   11  A    between atoms: S_22  and  C_25
REMARK                            x       y       z     vdW  Elec       q    Type
REMARK                         _______ _______ _______ _____ _____    ______ ____
ROOT
ATOM      1  C   UNL     1       4.700  -2.754  -0.728  0.00  0.00    +0.000 C 
ENDROOT
BRANCH   1   3
ATOM      2  N   UNL     1       2.231  -2.664  -0.823  0.00  0.00    +0.000 N 
ATOM      3  C   UNL     1       3.399  -1.995  -0.761  0.00  0.00    +0.000 C 
ATOM      4  O   UNL     1       3.403  -0.783  -0.733  0.00  0.00    +0.000 OA
ATOM      5  H   UNL     1       2.222  -3.692  -0.766  0.00  0.00    +0.000 HD
BRANCH   2  11
ATOM      6  C   UNL     1      -0.023  -2.512  -1.694  0.00  0.00    +0.000 A 
ATOM      7  C   UNL     1      -1.211  -1.811  -1.831  0.00  0.00    +0.000 A 
ATOM      8  C   UNL     1      -1.353  -0.570  -1.240  0.00  0.00    +0.000 A 
ATOM      9  C   UNL     1      -0.308  -0.018  -0.521  0.00  0.00    +0.000 A 
ATOM     10  C   UNL     1       0.879  -0.711  -0.379  0.00  0.00    +0.000 A 
ATOM     11  C   UNL     1       1.027  -1.960  -0.965  0.00  0.00    +0.000 A 
BRANCH   9  12
ATOM     12  N   UNL     1      -0.465   1.314   0.105  0.00  0.00    +0.000 N 
ATOM     13  O   UNL     1       0.452   1.798   0.743  0.00  0.00    +0.000 OA
ATOM     14  O   UNL     1      -1.509   1.928  -0.023  0.00  0.00    +0.000 OA
ENDBRANCH   9  12
BRANCH   6  16
ATOM     15  C   UNL     1      -1.002  -4.239  -3.003  0.00  0.00    +0.000 C 
ATOM     16  O   UNL     1       0.116  -3.736  -2.270  0.00  0.00    +0.000 OA
ENDBRANCH   6  16
ENDBRANCH   2  11
ENDBRANCH   1   3
BRANCH   1  17
ATOM     17  C   UNL     1       5.866  -1.766  -0.658  0.00  0.00    +0.000 C 
BRANCH  17  18
ATOM     18  N   UNL     1       7.135  -2.505  -0.626  0.00  0.00    +0.000 N 
ATOM     19  C   UNL     1       7.218  -3.354   0.570  0.00  0.00    +0.000 C 
ATOM     20  C   UNL     1       8.481  -4.216   0.498  0.00  0.00    +0.000 C 
ATOM     21  C   UNL     1       9.709  -3.306   0.408  0.00  0.00    +0.000 C 
ATOM     22  C   UNL     1       9.574  -2.399  -0.818  0.00  0.00    +0.000 C 
ATOM     23  C   UNL     1       8.280  -1.590  -0.708  0.00  0.00    +0.000 C 
ATOM     24  H   UNL     1       7.165  -3.121  -1.451  0.00  0.00    +0.000 HD
BRANCH  23  25
ATOM     25  C   UNL     1       8.131  -0.697  -1.941  0.00  0.00    +0.000 C 
BRANCH  25  26
ATOM     26  N   UNL     1       7.946  -1.532  -3.130  0.00  0.00    +0.000 NA
ATOM     27  H   UNL     1       8.185  -2.534  -3.098  0.00  0.00    +0.000 HD
BRANCH  26  28
ATOM     28  S   UNL     1       7.352  -0.867  -4.525  0.00  0.00    +0.000 S 
ATOM     29  O   UNL     1       7.283  -1.950  -5.443  0.00  0.00    +0.000 OA
ATOM     30  O   UNL     1       6.175  -0.179  -4.126  0.00  0.00    +0.000 OA
ATOM     31  C   UNL     1       8.620   0.319  -5.053  0.00  0.00    +0.000 C 
ENDBRANCH  26  28
ENDBRANCH  25  26
ENDBRANCH  23  25
ENDBRANCH  17  18
ENDBRANCH   1  17
TORSDOF 9
ENDMDL
MODEL      410
REMARK  Name = ZINC19848804
REMARK  13 active torsions:
REMARK  status: ('A' for Active; 'I' for Inactive)
REMARK    1  A    between atoms: C_1  and  C_2
REMARK    2  A    between atoms: C_2  and  C_3
REMARK    3  A    between atoms: C_3  and  C_4
REMARK    4  A    between atoms: C_4  and  N_5
REMARK    5  A    between atoms: C_9  and  C_22
REMARK    6  A    between atoms: C_11  and  C_15
REMARK    7  A    between atoms: C_11  and  C_19
REMARK    8  A    between atoms: C_15  and  C_16
REMARK    9  A    between atoms: C_16  and  C_17
REMARK   10  A    between atoms: C_16  and  C_18
REMARK   11  A    between atoms: C_25  and  O_29
REMARK   12  A    between atoms: C_27  and  O_28
REMARK   13  A    between atoms: O_29  and  C_30
REMARK                            x       y       z     vdW  Elec       q    Type
REMARK                         _______ _______ _______ _____ _____    ______ ____
ROOT
ATOM      1  N   UNL     1       1.498   0.444   2.773  0.00  0.00    +0.000 N 
ATOM      2  C   UNL     1       2.393   0.940   1.911  0.00  0.00    +0.000 C 
ATOM      3  O   UNL     1       3.178   1.833   2.152  0.00  0.00    +0.000 OA
ATOM      4  C   UNL     1       2.272   0.215   0.590  0.00  0.00    +0.000 C 
ATOM      5  C   UNL     1       1.708   1.183  -0.471  0.00  0.00    +0.000 C 
ATOM      6  N   UNL     1       0.233   1.086  -0.324  0.00  0.00    +0.000 N 
ATOM      7  C   UNL     1      -0.015  -0.359  -0.087  0.00  0.00    +0.000 C 
ATOM      8  C   UNL     1       1.131  -0.806   0.844  0.00  0.00    +0.000 C 
ATOM      9  C   UNL     1       0.738  -0.540   2.280  0.00  0.00    +0.000 C 
ATOM     10  O   UNL     1      -0.131  -1.127   2.889  0.00  0.00    +0.000 OA
ATOM     11  H   UNL     1      -0.232   1.388  -1.192  0.00  0.00    +0.000 HD
ATOM     12  H   UNL     1      -0.079   1.637   0.489  0.00  0.00    +0.000 HD
ENDROOT
BRANCH   5  13
ATOM     13  C   UNL     1       2.171   2.591  -0.196  0.00  0.00    +0.000 A 
ATOM     14  C   UNL     1       1.400   3.432   0.583  0.00  0.00    +0.000 A 
ATOM     15  C   UNL     1       1.822   4.723   0.836  0.00  0.00    +0.000 A 
ATOM     16  C   UNL     1       3.023   5.178   0.309  0.00  0.00    +0.000 A 
ATOM     17  C   UNL     1       3.799   4.335  -0.472  0.00  0.00    +0.000 A 
ATOM     18  C   UNL     1       3.375   3.039  -0.721  0.00  0.00    +0.000 A 
BRANCH  18  19
ATOM     19  O   UNL     1       4.136   2.209  -1.482  0.00  0.00    +0.000 OA
ATOM     20  H   UNL     1       3.540   1.921  -2.218  0.00  0.00    +0.000 HD
ENDBRANCH  18  19
BRANCH  16  21
ATOM     21  O   UNL     1       3.438   6.447   0.559  0.00  0.00    +0.000 OA
ATOM     22  C   UNL     1       2.588   7.259   1.372  0.00  0.00    +0.000 C 
ENDBRANCH  16  21
ENDBRANCH   5  13
BRANCH   7  23
ATOM     23  C   UNL     1       0.035  -1.120  -1.387  0.00  0.00    +0.000 C 
ATOM     24  O   UNL     1       0.504  -2.233  -1.418  0.00  0.00    +0.000 OA
ATOM     25  O   UNL     1      -0.443  -0.561  -2.510  0.00  0.00    +0.000 OA
ENDBRANCH   7  23
BRANCH   7  26
ATOM     26  C   UNL     1      -1.368  -0.562   0.597  0.00  0.00    +0.000 C 
BRANCH  26  27
ATOM     27  C   UNL     1      -2.479   0.000  -0.292  0.00  0.00    +0.000 C 
ATOM     28  C   UNL     1      -3.830  -0.549   0.170  0.00  0.00    +0.000 C 
ATOM     29  C   UNL     1      -2.488   1.527  -0.192  0.00  0.00    +0.000 C 
ENDBRANCH  26  27
ENDBRANCH   7  26
BRANCH   1  30
ATOM     30  C   UNL     1       1.362   0.938   4.146  0.00  0.00    +0.000 C 
BRANCH  30  31
ATOM     31  C   UNL     1       0.347   2.082   4.178  0.00  0.00    +0.000 C 
BRANCH  31  33
ATOM     32  C   UNL     1      -0.811   3.742   5.644  0.00  0.00    +0.000 C 
ATOM     33  C   UNL     1       0.204   2.598   5.612  0.00  0.00    +0.000 C 
ENDBRANCH  31  33
ENDBRANCH  30  31
ENDBRANCH   1  30
TORSDOF 9
ENDMDL
MODEL      411
REMARK  Name = ZINC22835273
REMARK  11 active torsions:
REMARK  status: ('A' for Active; 'I' for Inactive)
REMARK    1  A    between atoms: C_1  and  C_2
REMARK    2  A    between atoms: C_4  and  C_30
REMARK    3  A    between atoms: C_6  and  N_12
REMARK    4  A    between atoms: C_13  and  C_15
REMARK    5  A    between atoms: C_15  and  N_16
REMARK    6  A    between atoms: N_19  and  C_22
REMARK    7  A    between atoms: C_22  and  C_23
REMARK    8  A    between atoms: N_25  and  C_26
REMARK    9  A    between atoms: C_26  and  C_27
REMARK   10  A    between atoms: C_27  and  O_28
REMARK   11  A    between atoms: O_28  and  C_29
REMARK                            x       y       z     vdW  Elec       q    Type
REMARK                         _______ _______ _______ _____ _____    ______ ____
ROOT
ATOM      1  N   UNL     1      -2.439   1.014   4.307  0.00  0.00    +0.000 N 
ATOM      2  C   UNL     1      -2.530  -0.317   4.493  0.00  0.00    +0.000 C 
ATOM      3  O   UNL     1      -2.060  -1.078   3.673  0.00  0.00    +0.000 OA
ATOM      4  H   UNL     1      -2.838   1.660   5.003  0.00  0.00    +0.000 HD
ENDROOT
BRANCH   1  10
ATOM      5  C   UNL     1       0.148   4.259  -0.308  0.00  0.00    +0.000 C 
ATOM      6  C   UNL     1      -0.592   4.173   1.001  0.00  0.00    +0.000 A 
ATOM      7  C   UNL     1      -0.913   2.865   1.581  0.00  0.00    +0.000 A 
ATOM      8  C   UNL     1      -0.718   1.572   1.248  0.00  0.00    +0.000 A 
ATOM      9  O   UNL     1      -1.249   0.785   2.203  0.00  0.00    +0.000 OA
ATOM     10  C   UNL     1      -1.808   1.515   3.181  0.00  0.00    +0.000 A 
ATOM     11  C   UNL     1      -1.647   2.843   2.871  0.00  0.00    +0.000 A 
ATOM     12  C   UNL     1      -1.998   4.127   3.470  0.00  0.00    +0.000 A 
ATOM     13  O   UNL     1      -2.596   4.175   4.529  0.00  0.00    +0.000 OA
ATOM     14  N   UNL     1      -1.635   5.260   2.833  0.00  0.00    +0.000 N 
ATOM     15  N   UNL     1      -0.949   5.255   1.621  0.00  0.00    +0.000 NA
ATOM     16  C   UNL     1      -0.013   1.086   0.008  0.00  0.00    +0.000 C 
ATOM     17  H   UNL     1      -1.875   6.165   3.261  0.00  0.00    +0.000 HD
ENDBRANCH   1  10
BRANCH   2  18
ATOM     18  C   UNL     1      -3.217  -0.862   5.719  0.00  0.00    +0.000 C 
BRANCH  18  19
ATOM     19  N   UNL     1      -3.184  -2.330   5.687  0.00  0.00    +0.000 NA
ATOM     20  C   UNL     1      -3.993  -2.851   4.576  0.00  0.00    +0.000 C 
ATOM     21  C   UNL     1      -3.869  -4.376   4.530  0.00  0.00    +0.000 C 
ATOM     22  N   UNL     1      -4.314  -4.941   5.811  0.00  0.00    +0.000 NA
ATOM     23  C   UNL     1      -3.505  -4.420   6.922  0.00  0.00    +0.000 C 
ATOM     24  C   UNL     1      -3.629  -2.895   6.969  0.00  0.00    +0.000 C 
BRANCH  22  25
ATOM     25  C   UNL     1      -4.281  -6.409   5.780  0.00  0.00    +0.000 C 
BRANCH  25  26
ATOM     26  C   UNL     1      -5.304  -6.913   4.795  0.00  0.00    +0.000 C 
ATOM     27  O   UNL     1      -5.994  -6.127   4.181  0.00  0.00    +0.000 OA
ATOM     28  N   UNL     1      -5.454  -8.238   4.598  0.00  0.00    +0.000 N 
ATOM     29  H   UNL     1      -4.869  -8.906   5.120  0.00  0.00    +0.000 HD
BRANCH  28  30
ATOM     30  C   UNL     1      -6.449  -8.728   3.641  0.00  0.00    +0.000 C 
BRANCH  30  31
ATOM     31  C   UNL     1      -6.415 -10.257   3.608  0.00  0.00    +0.000 C 
BRANCH  31  32
ATOM     32  O   UNL     1      -6.826 -10.770   4.877  0.00  0.00    +0.000 OA
ATOM     33  C   UNL     1      -6.829 -12.197   4.953  0.00  0.00    +0.000 C 
ENDBRANCH  31  32
ENDBRANCH  30  31
ENDBRANCH  28  30
ENDBRANCH  25  26
ENDBRANCH  22  25
ENDBRANCH  18  19
ENDBRANCH   2  18
TORSDOF 8
ENDMDL
MODEL      412
REMARK  Name = ZINC31815375
REMARK  12 active torsions:
REMARK  status: ('A' for Active; 'I' for Inactive)
REMARK    1  A    between atoms: C_1  and  N_2
REMARK    2  A    between atoms: N_2  and  C_3
REMARK    3  A    between atoms: N_2  and  C_4
REMARK    4  A    between atoms: C_4  and  C_5
REMARK    5  A    between atoms: C_5  and  N_6
REMARK    6  A    between atoms: C_7  and  C_9
REMARK    7  A    between atoms: C_9  and  N_10
REMARK    8  A    between atoms: N_13  and  C_16
REMARK    9  A    between atoms: C_16  and  C_17
REMARK   10  A    between atoms: C_16  and  C_28
REMARK   11  A    between atoms: C_23  and  C_26
REMARK   12  A    between atoms: C_26  and  O_27
REMARK                            x       y       z     vdW  Elec       q    Type
REMARK                         _______ _______ _______ _____ _____    ______ ____
ROOT
ATOM      1  N   UNL     1      -6.341  -2.344   6.921  0.00  0.00    +0.000 NA
ATOM      2  C   UNL     1      -7.060  -2.014   5.683  0.00  0.00    +0.000 C 
ATOM      3  C   UNL     1      -6.052  -1.826   4.546  0.00  0.00    +0.000 C 
ATOM      4  N   UNL     1      -5.107  -0.759   4.903  0.00  0.00    +0.000 N 
ATOM      5  C   UNL     1      -4.388  -1.089   6.142  0.00  0.00    +0.000 C 
ATOM      6  C   UNL     1      -5.396  -1.277   7.279  0.00  0.00    +0.000 C 
ATOM      7  H   UNL     1      -5.648   0.102   5.069  0.00  0.00    +0.000 HD
ENDROOT
BRANCH   4   8
ATOM      8  C   UNL     1      -4.169  -0.496   3.804  0.00  0.00    +0.000 C 
BRANCH   8   9
ATOM      9  C   UNL     1      -4.934  -0.032   2.591  0.00  0.00    +0.000 A 
ATOM     10  C   UNL     1      -6.146   0.545   2.584  0.00  0.00    +0.000 A 
ATOM     11  N   UNL     1      -6.520   0.828   1.298  0.00  0.00    +0.000 N 
ATOM     12  C   UNL     1      -5.532   0.431   0.425  0.00  0.00    +0.000 A 
ATOM     13  C   UNL     1      -4.495  -0.126   1.196  0.00  0.00    +0.000 A 
ATOM     14  C   UNL     1      -3.349  -0.619   0.570  0.00  0.00    +0.000 A 
ATOM     15  C   UNL     1      -3.240  -0.559  -0.791  0.00  0.00    +0.000 A 
ATOM     16  C   UNL     1      -4.258  -0.006  -1.556  0.00  0.00    +0.000 A 
ATOM     17  C   UNL     1      -5.400   0.482  -0.959  0.00  0.00    +0.000 A 
ATOM     18  H   UNL     1      -7.407   1.273   1.025  0.00  0.00    +0.000 HD
BRANCH  15  19
ATOM     19  C   UNL     1      -2.003  -1.091  -1.466  0.00  0.00    +0.000 C 
BRANCH  19  20
ATOM     20  O   UNL     1      -2.188  -2.473  -1.779  0.00  0.00    +0.000 OA
ATOM     21  H   UNL     1      -2.963  -2.574  -2.386  0.00  0.00    +0.000 HD
ENDBRANCH  19  20
ENDBRANCH  15  19
ENDBRANCH   8   9
BRANCH   8  22
ATOM     22  C   UNL     1      -3.192   0.572   4.221  0.00  0.00    +0.000 C 
ATOM     23  O   UNL     1      -3.520   1.407   5.031  0.00  0.00    +0.000 OA
ATOM     24  O   UNL     1      -1.958   0.597   3.694  0.00  0.00    +0.000 OA
ENDBRANCH   8  22
ENDBRANCH   4   8
BRANCH   1  25
ATOM     25  C   UNL     1      -7.279  -2.607   8.020  0.00  0.00    +0.000 C 
BRANCH  25  27
ATOM     26  N   UNL     1      -9.102  -4.203   8.518  0.00  0.00    +0.000 N 
ATOM     27  C   UNL     1      -8.095  -3.833   7.702  0.00  0.00    +0.000 C 
ATOM     28  O   UNL     1      -7.846  -4.487   6.712  0.00  0.00    +0.000 OA
ATOM     29  H   UNL     1      -9.313  -3.647   9.360  0.00  0.00    +0.000 HD
BRANCH  26  30
ATOM     30  C   UNL     1      -9.896  -5.394   8.209  0.00  0.00    +0.000 C 
BRANCH  30  31
ATOM     31  C   UNL     1     -10.965  -5.589   9.286  0.00  0.00    +0.000 C 
BRANCH  31  33
ATOM     32  C   UNL     1     -12.637  -7.139  10.100  0.00  0.00    +0.000 C 
ATOM     33  N   UNL     1     -11.761  -6.784   8.975  0.00  0.00    +0.000 N 
ATOM     34  C   UNL     1     -12.537  -6.594   7.743  0.00  0.00    +0.000 C 
ATOM     35  H   UNL     1     -11.110  -7.567   8.822  0.00  0.00    +0.000 HD
ENDBRANCH  31  33
ENDBRANCH  30  31
ENDBRANCH  26  30
ENDBRANCH  25  27
ENDBRANCH   1  25
TORSDOF 10
ENDMDL
MODEL      413
REMARK  Name = ZINC25165929
REMARK  8 active torsions:
REMARK  status: ('A' for Active; 'I' for Inactive)
REMARK    1  A    between atoms: C_3  and  C_6
REMARK    2  A    between atoms: N_8  and  C_9
REMARK    3  A    between atoms: C_9  and  C_10
REMARK    4  A    between atoms: C_10  and  C_11
REMARK    5  A    between atoms: C_11  and  C_12
REMARK    6  A    between atoms: N_14  and  N_15
REMARK    7  A    between atoms: C_16  and  C_18
REMARK    8  A    between atoms: C_18  and  C_19
REMARK                            x       y       z     vdW  Elec       q    Type
REMARK                         _______ _______ _______ _____ _____    ______ ____
ROOT
ATOM      1  C   UNL     1      -4.582   3.651   3.266  0.00  0.00    +0.000 C 
ATOM      2  O   UNL     1      -5.229   4.119   2.353  0.00  0.00    +0.000 OA
ATOM      3  N   UNL     1      -3.424   3.009   3.011  0.00  0.00    +0.000 N 
ATOM      4  H   UNL     1      -2.875   2.612   3.787  0.00  0.00    +0.000 HD
ENDROOT
BRANCH   3   5
ATOM      5  N   UNL     1      -2.969   2.882   1.693  0.00  0.00    +0.000 N 
ATOM      6  C   UNL     1      -1.812   2.240   1.438  0.00  0.00    +0.000 C 
ATOM      7  O   UNL     1      -1.164   1.772   2.351  0.00  0.00    +0.000 OA
ATOM      8  H   UNL     1      -3.518   3.280   0.918  0.00  0.00    +0.000 HD
BRANCH   6   9
ATOM      9  C   UNL     1      -1.322   2.103   0.020  0.00  0.00    +0.000 C 
BRANCH   9  10
ATOM     10  C   UNL     1      -0.016   1.350   0.009  0.00  0.00    +0.000 A 
ATOM     11  C   UNL     1       0.002  -0.004   0.002  0.00  0.00    +0.000 A 
ATOM     12  S   UNL     1       1.762  -0.313  -0.016  0.00  0.00    +0.000 S 
ATOM     13  C   UNL     1       2.282   1.344  -0.013  0.00  0.00    +0.000 A 
ATOM     14  N   UNL     1       1.135   1.995   0.002  0.00  0.00    +0.000 NA
ATOM     15  N   UNL     1       3.572   1.851  -0.022  0.00  0.00    +0.000 N 
ATOM     16  C   UNL     1       3.773   2.758  -1.161  0.00  0.00    +0.000 C 
ATOM     17  C   UNL     1       5.188   3.341  -1.099  0.00  0.00    +0.000 C 
ATOM     18  O   UNL     1       6.138   2.272  -1.084  0.00  0.00    +0.000 OA
ATOM     19  C   UNL     1       5.971   1.370   0.013  0.00  0.00    +0.000 C 
ATOM     20  C   UNL     1       4.565   0.767  -0.037  0.00  0.00    +0.000 C 
ENDBRANCH   9  10
ENDBRANCH   6   9
ENDBRANCH   3   5
BRANCH   1  21
ATOM     21  C   UNL     1      -5.071   3.788   4.684  0.00  0.00    +0.000 C 
BRANCH  21  22
ATOM     22  C   UNL     1      -6.397   4.553   4.695  0.00  0.00    +0.000 C 
BRANCH  22  23
ATOM     23  C   UNL     1      -6.894   4.691   6.135  0.00  0.00    +0.000 C 
BRANCH  23  26
ATOM     24  C   UNL     1      -8.792   5.666   7.312  0.00  0.00    +0.000 C 
ATOM     25  O   UNL     1      -8.305   5.277   8.358  0.00  0.00    +0.000 OA
ATOM     26  N   UNL     1      -8.163   5.423   6.145  0.00  0.00    +0.000 N 
ATOM     27  H   UNL     1      -8.575   5.753   5.260  0.00  0.00    +0.000 HD
BRANCH  24  30
ATOM     28  C   UNL     1     -11.929   7.411   7.976  0.00  0.00    +0.000 A 
ATOM     29  C   UNL     1     -10.800   6.711   8.428  0.00  0.00    +0.000 A 
ATOM     30  C   UNL     1     -10.062   6.399   7.322  0.00  0.00    +0.000 A 
ATOM     31  O   UNL     1     -10.704   6.888   6.241  0.00  0.00    +0.000 OA
ATOM     32  C   UNL     1     -11.833   7.494   6.631  0.00  0.00    +0.000 A 
ENDBRANCH  24  30
ENDBRANCH  23  26
ENDBRANCH  22  23
ENDBRANCH  21  22
ENDBRANCH   1  21
TORSDOF 8
ENDMDL
MODEL      414
REMARK  Name = ZINC02212089
REMARK  16 active torsions:
REMARK  status: ('A' for Active; 'I' for Inactive)
REMARK    1  A    between atoms: C_1  and  O_2
REMARK    2  A    between atoms: O_2  and  C_3
REMARK    3  A    between atoms: C_5  and  C_13
REMARK    4  A    between atoms: C_6  and  O_11
REMARK    5  A    between atoms: C_8  and  O_9
REMARK    6  A    between atoms: O_9  and  C_10
REMARK    7  A    between atoms: O_11  and  C_12
REMARK    8  A    between atoms: C_14  and  C_29
REMARK    9  A    between atoms: C_15  and  N_28
REMARK   10  A    between atoms: C_17  and  C_23
REMARK   11  A    between atoms: C_18  and  C_19
REMARK   12  A    between atoms: C_19  and  O_21
REMARK   13  A    between atoms: O_21  and  C_22
REMARK   14  A    between atoms: C_23  and  C_24
REMARK   15  A    between atoms: C_24  and  O_26
REMARK   16  A    between atoms: O_26  and  C_27
REMARK                            x       y       z     vdW  Elec       q    Type
REMARK                         _______ _______ _______ _____ _____    ______ ____
ROOT
ATOM      1  C   UNL     1      -0.445   4.391   0.132  0.00  0.00    +0.000 C 
ATOM      2  C   UNL     1      -0.219   5.319   1.295  0.00  0.00    +0.000 C 
ATOM      3  C   UNL     1       0.411   6.506   1.122  0.00  0.00    +0.000 C 
ATOM      4  O   UNL     1       0.859   6.901  -0.083  0.00  0.00    +0.000 OA
ATOM      5  C   UNL     1       0.370   6.322  -1.189  0.00  0.00    +0.000 C 
ATOM      6  C   UNL     1      -0.256   5.139  -1.160  0.00  0.00    +0.000 C 
ENDROOT
BRANCH   1   9
ATOM      7  C   UNL     1       2.805   2.466   0.228  0.00  0.00    +0.000 A 
ATOM      8  C   UNL     1       1.898   3.511   0.165  0.00  0.00    +0.000 A 
ATOM      9  C   UNL     1       0.540   3.252   0.201  0.00  0.00    +0.000 A 
ATOM     10  C   UNL     1       0.084   1.947   0.300  0.00  0.00    +0.000 A 
ATOM     11  C   UNL     1       0.989   0.898   0.369  0.00  0.00    +0.000 A 
ATOM     12  C   UNL     1       2.349   1.155   0.328  0.00  0.00    +0.000 A 
BRANCH  10  13
ATOM     13  O   UNL     1      -1.252   1.695   0.335  0.00  0.00    +0.000 OA
ATOM     14  C   UNL     1      -1.652   0.327   0.438  0.00  0.00    +0.000 C 
ENDBRANCH  10  13
BRANCH  12  15
ATOM     15  O   UNL     1       3.238   0.128   0.391  0.00  0.00    +0.000 OA
ATOM     16  C   UNL     1       2.699  -1.191   0.492  0.00  0.00    +0.000 C 
ENDBRANCH  12  15
BRANCH   7  18
ATOM     17  C   UNL     1       4.537   4.091   0.091  0.00  0.00    +0.000 C 
ATOM     18  O   UNL     1       4.141   2.722   0.194  0.00  0.00    +0.000 OA
ENDBRANCH   7  18
ENDBRANCH   1   9
BRANCH   3  19
ATOM     19  N   UNL     1       0.597   7.327   2.205  0.00  0.00    +0.000 N 
ATOM     20  H   UNL     1       0.263   7.049   3.139  0.00  0.00    +0.000 HD
ATOM     21  H   UNL     1       1.075   8.231   2.082  0.00  0.00    +0.000 HD
ENDBRANCH   3  19
BRANCH   6  22
ATOM     22  C   UNL     1      -0.749   4.582  -2.365  0.00  0.00    +0.000 C 
ATOM     23  O   UNL     1      -0.720   5.233  -3.393  0.00  0.00    +0.000 OA
BRANCH  22  24
ATOM     24  O   UNL     1      -1.250   3.329  -2.374  0.00  0.00    +0.000 OA
ATOM     25  C   UNL     1      -1.729   2.832  -3.625  0.00  0.00    +0.000 C 
ENDBRANCH  22  24
ENDBRANCH   6  22
BRANCH   2  26
ATOM     26  C   UNL     1      -0.676   4.944   2.599  0.00  0.00    +0.000 C 
ATOM     27  N   UNL     1      -1.038   4.646   3.634  0.00  0.00    +0.000 NA
ENDBRANCH   2  26
BRANCH   5  28
ATOM     28  C   UNL     1       0.530   7.028  -2.511  0.00  0.00    +0.000 C 
BRANCH  28  29
ATOM     29  C   UNL     1      -0.741   7.768  -2.842  0.00  0.00    +0.000 C 
ATOM     30  O   UNL     1      -1.679   7.727  -2.082  0.00  0.00    +0.000 OA
BRANCH  29  31
ATOM     31  O   UNL     1      -0.829   8.473  -3.981  0.00  0.00    +0.000 OA
ATOM     32  C   UNL     1      -2.082   9.161  -4.234  0.00  0.00    +0.000 C 
ENDBRANCH  29  31
ENDBRANCH  28  29
ENDBRANCH   5  28
TORSDOF 11
ENDMDL
MODEL      415
REMARK  Name = ZINC25187303
REMARK  12 active torsions:
REMARK  status: ('A' for Active; 'I' for Inactive)
REMARK    1  A    between atoms: C_1  and  C_2
REMARK    2  A    between atoms: C_2  and  C_3
REMARK    3  A    between atoms: C_2  and  O_30
REMARK    4  A    between atoms: C_8  and  N_21
REMARK    5  A    between atoms: C_10  and  C_11
REMARK    6  A    between atoms: N_13  and  C_14
REMARK    7  A    between atoms: C_14  and  C_15
REMARK    8  A    between atoms: C_15  and  C_16
REMARK    9  A    between atoms: C_16  and  C_17
REMARK   10  A    between atoms: C_17  and  O_19
REMARK   11  A    between atoms: O_19  and  C_20
REMARK   12  A    between atoms: C_22  and  C_24
REMARK                            x       y       z     vdW  Elec       q    Type
REMARK                         _______ _______ _______ _____ _____    ______ ____
ROOT
ATOM      1  C   UNL     1      -3.610   1.661  -2.079  0.00  0.00    +0.000 C 
ATOM      2  O   UNL     1      -4.586   1.019  -1.757  0.00  0.00    +0.000 OA
ATOM      3  N   UNL     1      -2.691   2.001  -1.154  0.00  0.00    +0.000 N 
ATOM      4  C   UNL     1      -1.439   2.661  -1.548  0.00  0.00    +0.000 C 
ATOM      5  C   UNL     1      -0.261   1.864  -0.981  0.00  0.00    +0.000 C 
ATOM      6  C   UNL     1      -0.437   1.706   0.531  0.00  0.00    +0.000 C 
ATOM      7  C   UNL     1      -1.727   0.932   0.817  0.00  0.00    +0.000 C 
ATOM      8  C   UNL     1      -2.922   1.719   0.270  0.00  0.00    +0.000 C 
ENDROOT
BRANCH   8   9
ATOM      9  C   UNL     1      -4.179   0.901   0.425  0.00  0.00    +0.000 C 
ATOM     10  O   UNL     1      -4.251  -0.201  -0.075  0.00  0.00    +0.000 OA
ATOM     11  N   UNL     1      -5.223   1.396   1.119  0.00  0.00    +0.000 N 
ATOM     12  H   UNL     1      -5.162   2.333   1.543  0.00  0.00    +0.000 HD
BRANCH  11  13
ATOM     13  C   UNL     1      -6.445   0.602   1.269  0.00  0.00    +0.000 C 
BRANCH  13  14
ATOM     14  C   UNL     1      -7.466   1.388   2.094  0.00  0.00    +0.000 C 
BRANCH  14  15
ATOM     15  C   UNL     1      -8.742   0.558   2.251  0.00  0.00    +0.000 C 
BRANCH  15  16
ATOM     16  C   UNL     1      -9.748   1.333   3.063  0.00  0.00    +0.000 C 
ATOM     17  O   UNL     1      -9.472   2.435   3.474  0.00  0.00    +0.000 OA
BRANCH  16  18
ATOM     18  O   UNL     1     -10.950   0.798   3.330  0.00  0.00    +0.000 OA
ATOM     19  C   UNL     1     -11.868   1.601   4.118  0.00  0.00    +0.000 C 
ENDBRANCH  16  18
ENDBRANCH  15  16
ENDBRANCH  14  15
ENDBRANCH  13  14
ENDBRANCH  11  13
ENDBRANCH   8   9
BRANCH   6  20
ATOM     20  N   UNL     1      -0.514   3.029   1.155  0.00  0.00    +0.000 N 
ATOM     21  C   UNL     1       0.616   3.684   1.486  0.00  0.00    +0.000 C 
ATOM     22  O   UNL     1       1.699   3.178   1.267  0.00  0.00    +0.000 OA
ATOM     23  H   UNL     1      -1.432   3.458   1.341  0.00  0.00    +0.000 HD
BRANCH  21  24
ATOM     24  C   UNL     1       0.539   5.023   2.117  0.00  0.00    +0.000 A 
ATOM     25  C   UNL     1      -0.697   5.626   2.372  0.00  0.00    +0.000 A 
ATOM     26  C   UNL     1      -0.723   6.873   2.966  0.00  0.00    +0.000 A 
ATOM     27  N   UNL     1       0.395   7.496   3.282  0.00  0.00    +0.000 NA
ATOM     28  C   UNL     1       1.580   6.965   3.053  0.00  0.00    +0.000 A 
ATOM     29  C   UNL     1       1.699   5.720   2.468  0.00  0.00    +0.000 A 
ENDBRANCH  21  24
ENDBRANCH   6  20
BRANCH   1  31
ATOM     30  C   UNL     1      -2.376   1.180  -4.176  0.00  0.00    +0.000 C 
ATOM     31  C   UNL     1      -3.423   2.079  -3.515  0.00  0.00    +0.000 C 
BRANCH  31  32
ATOM     32  O   UNL     1      -4.664   1.957  -4.212  0.00  0.00    +0.000 OA
ATOM     33  H   UNL     1      -4.971   1.016  -4.180  0.00  0.00    +0.000 HD
ENDBRANCH  31  32
ENDBRANCH   1  31
TORSDOF 10
ENDMDL
MODEL      416
REMARK  Name = ZINC30969187
REMARK  10 active torsions:
REMARK  status: ('A' for Active; 'I' for Inactive)
REMARK    1  A    between atoms: C_1  and  C_2
REMARK    2  A    between atoms: C_2  and  C_3
REMARK    3  A    between atoms: C_3  and  C_4
REMARK    4  A    between atoms: C_4  and  N_5
REMARK    5  A    between atoms: C_6  and  C_8
REMARK    6  A    between atoms: N_11  and  C_14
REMARK    7  A    between atoms: C_14  and  C_15
REMARK    8  A    between atoms: N_17  and  N_18
REMARK    9  A    between atoms: C_19  and  C_21
REMARK   10  A    between atoms: C_21  and  C_22
REMARK                            x       y       z     vdW  Elec       q    Type
REMARK                         _______ _______ _______ _____ _____    ______ ____
ROOT
ATOM      1  C   UNL     1      -5.175  -3.708  -1.683  0.00  0.00    +0.000 C 
ATOM      2  O   UNL     1      -5.514  -4.511  -2.526  0.00  0.00    +0.000 OA
ATOM      3  N   UNL     1      -5.329  -2.388  -1.908  0.00  0.00    +0.000 N 
ATOM      4  H   UNL     1      -5.041  -1.706  -1.192  0.00  0.00    +0.000 HD
ENDROOT
BRANCH   3   5
ATOM      5  N   UNL     1      -5.880  -1.943  -3.117  0.00  0.00    +0.000 N 
ATOM      6  C   UNL     1      -6.033  -0.624  -3.342  0.00  0.00    +0.000 C 
ATOM      7  O   UNL     1      -5.694   0.179  -2.499  0.00  0.00    +0.000 OA
ATOM      8  H   UNL     1      -6.168  -2.625  -3.833  0.00  0.00    +0.000 HD
BRANCH   6   9
ATOM      9  C   UNL     1      -6.626  -0.145  -4.643  0.00  0.00    +0.000 C 
BRANCH   9  10
ATOM     10  C   UNL     1      -6.689   1.384  -4.643  0.00  0.00    +0.000 C 
ATOM     11  C   UNL     1      -5.261   1.953  -4.600  0.00  0.00    +0.000 C 
ATOM     12  C   UNL     1      -5.337   3.474  -4.915  0.00  0.00    +0.000 C 
ATOM     13  S   UNL     1      -6.589   3.476  -6.267  0.00  0.00    +0.000 S 
ATOM     14  O   UNL     1      -5.919   3.394  -7.518  0.00  0.00    +0.000 OA
ATOM     15  O   UNL     1      -7.516   4.529  -6.038  0.00  0.00    +0.000 OA
ATOM     16  C   UNL     1      -7.412   1.868  -5.923  0.00  0.00    +0.000 C 
ENDBRANCH   9  10
ENDBRANCH   6   9
ENDBRANCH   3   5
BRANCH   1  17
ATOM     17  C   UNL     1      -4.583  -4.186  -0.382  0.00  0.00    +0.000 C 
BRANCH  17  21
ATOM     18  C   UNL     1      -5.295  -8.225   0.829  0.00  0.00    +0.000 C 
ATOM     19  C   UNL     1      -6.105  -7.630  -0.327  0.00  0.00    +0.000 C 
ATOM     20  C   UNL     1      -6.056  -6.103  -0.245  0.00  0.00    +0.000 C 
ATOM     21  N   UNL     1      -4.660  -5.652  -0.319  0.00  0.00    +0.000 NA
ATOM     22  C   UNL     1      -3.874  -6.172   0.807  0.00  0.00    +0.000 C 
ATOM     23  C   UNL     1      -3.858  -7.702   0.756  0.00  0.00    +0.000 C 
BRANCH  18  25
ATOM     24  N   UNL     1      -4.634 -10.468   1.634  0.00  0.00    +0.000 N 
ATOM     25  C   UNL     1      -5.290  -9.728   0.719  0.00  0.00    +0.000 C 
ATOM     26  O   UNL     1      -5.876 -10.271  -0.193  0.00  0.00    +0.000 OA
ATOM     27  H   UNL     1      -4.137 -10.007   2.409  0.00  0.00    +0.000 HD
BRANCH  24  28
ATOM     28  C   UNL     1      -4.629 -11.929   1.528  0.00  0.00    +0.000 C 
BRANCH  28  29
ATOM     29  C   UNL     1      -3.820 -12.522   2.683  0.00  0.00    +0.000 C 
BRANCH  29  31
ATOM     30  C   UNL     1      -3.006 -14.641   3.727  0.00  0.00    +0.000 C 
ATOM     31  C   UNL     1      -3.815 -14.048   2.571  0.00  0.00    +0.000 C 
ENDBRANCH  29  31
ENDBRANCH  28  29
ENDBRANCH  24  28
ENDBRANCH  18  25
ENDBRANCH  17  21
ENDBRANCH   1  17
TORSDOF 9
ENDMDL
MODEL      417
REMARK  Name = ZINC15084765
REMARK  12 active torsions:
REMARK  status: ('A' for Active; 'I' for Inactive)
REMARK    1  A    between atoms: C_1  and  C_2
REMARK    2  A    between atoms: C_2  and  O_3
REMARK    3  A    between atoms: O_3  and  C_4
REMARK    4  A    between atoms: C_4  and  C_6
REMARK    5  A    between atoms: C_9  and  C_11
REMARK    6  A    between atoms: C_11  and  C_12
REMARK    7  A    between atoms: C_13  and  C_25
REMARK    8  A    between atoms: C_14  and  O_23
REMARK    9  A    between atoms: C_17  and  O_18
REMARK   10  A    between atoms: O_18  and  C_19
REMARK   11  A    between atoms: O_23  and  C_24
REMARK   12  A    between atoms: N_26  and  N_27
REMARK                            x       y       z     vdW  Elec       q    Type
REMARK                         _______ _______ _______ _____ _____    ______ ____
ROOT
ATOM      1  C   UNL     1      -0.372   1.690   1.449  0.00  0.00    +0.000 A 
ATOM      2  C   UNL     1      -1.262   0.967   2.251  0.00  0.00    +0.000 A 
ATOM      3  C   UNL     1      -1.597   1.446   3.523  0.00  0.00    +0.000 A 
ATOM      4  C   UNL     1      -1.046   2.634   3.982  0.00  0.00    +0.000 A 
ATOM      5  C   UNL     1      -0.162   3.347   3.180  0.00  0.00    +0.000 A 
ATOM      6  C   UNL     1       0.176   2.869   1.916  0.00  0.00    +0.000 A 
ATOM      7  O   UNL     1       0.234   4.467   3.854  0.00  0.00    +0.000 OA
ATOM      8  C   UNL     1      -0.096   4.222   5.234  0.00  0.00    +0.000 C 
ATOM      9  O   UNL     1      -1.205   3.306   5.162  0.00  0.00    +0.000 OA
ENDROOT
BRANCH   6  10
ATOM     10  O   UNL     1       1.045   3.567   1.136  0.00  0.00    +0.000 OA
ATOM     11  C   UNL     1       0.501   4.629   0.349  0.00  0.00    +0.000 C 
ENDBRANCH   6  10
BRANCH   3  12
ATOM     12  O   UNL     1      -2.461   0.748   4.307  0.00  0.00    +0.000 OA
ATOM     13  C   UNL     1      -1.890  -0.151   5.260  0.00  0.00    +0.000 C 
ENDBRANCH   3  12
BRANCH   2  14
ATOM     14  C   UNL     1      -1.843  -0.294   1.758  0.00  0.00    +0.000 C 
ATOM     15  N   UNL     1      -3.132  -0.436   1.705  0.00  0.00    +0.000 NA
BRANCH  15  16
ATOM     16  N   UNL     1      -3.970   0.610   2.112  0.00  0.00    +0.000 N 
ATOM     17  C   UNL     1      -5.305   0.427   2.154  0.00  0.00    +0.000 C 
ATOM     18  O   UNL     1      -6.039   1.361   2.418  0.00  0.00    +0.000 OA
ATOM     19  N   UNL     1      -5.827  -0.789   1.901  0.00  0.00    +0.000 N 
ATOM     20  H   UNL     1      -3.567   1.519   2.380  0.00  0.00    +0.000 HD
ATOM     21  H   UNL     1      -5.206  -1.580   1.677  0.00  0.00    +0.000 HD
ATOM     22  H   UNL     1      -6.847  -0.929   1.933  0.00  0.00    +0.000 HD
ENDBRANCH  15  16
ENDBRANCH   2  14
BRANCH   1  23
ATOM     23  C   UNL     1      -0.007   1.179   0.079  0.00  0.00    +0.000 C 
BRANCH  23  27
ATOM     24  C   UNL     1       2.282  -1.473  -1.011  0.00  0.00    +0.000 C 
ATOM     25  N   UNL     1       1.826  -1.892   0.121  0.00  0.00    +0.000 NA
ATOM     26  O   UNL     1       1.008  -0.939   0.772  0.00  0.00    +0.000 OA
ATOM     27  C   UNL     1       1.272   0.344   0.170  0.00  0.00    +0.000 C 
ATOM     28  C   UNL     1       1.768  -0.064  -1.238  0.00  0.00    +0.000 C 
BRANCH  24  29
ATOM     29  C   UNL     1       3.154  -2.232  -1.926  0.00  0.00    +0.000 C 
ATOM     30  O   UNL     1       3.523  -1.731  -2.969  0.00  0.00    +0.000 OA
BRANCH  29  31
ATOM     31  O   UNL     1       3.542  -3.482  -1.605  0.00  0.00    +0.000 OA
BRANCH  31  33
ATOM     32  C   UNL     1       4.733  -5.565  -2.020  0.00  0.00    +0.000 C 
ATOM     33  C   UNL     1       4.400  -4.170  -2.553  0.00  0.00    +0.000 C 
ENDBRANCH  31  33
ENDBRANCH  29  31
ENDBRANCH  24  29
ENDBRANCH  23  27
ENDBRANCH   1  23
TORSDOF 9
ENDMDL
MODEL      418
REMARK  Name = ZINC23644902
REMARK  13 active torsions:
REMARK  status: ('A' for Active; 'I' for Inactive)
REMARK    1  A    between atoms: C_1  and  C_2
REMARK    2  A    between atoms: C_2  and  C_3
REMARK    3  A    between atoms: C_2  and  C_4
REMARK    4  A    between atoms: C_4  and  N_5
REMARK    5  A    between atoms: C_6  and  N_27
REMARK    6  A    between atoms: C_7  and  N_13
REMARK    7  A    between atoms: N_13  and  C_14
REMARK    8  A    between atoms: C_14  and  C_15
REMARK    9  A    between atoms: C_15  and  O_16
REMARK   10  A    between atoms: O_16  and  C_17
REMARK   11  A    between atoms: C_18  and  C_20
REMARK   12  A    between atoms: C_20  and  S_21
REMARK   13  A    between atoms: S_21  and  C_22
REMARK                            x       y       z     vdW  Elec       q    Type
REMARK                         _______ _______ _______ _____ _____    ______ ____
ROOT
ATOM      1  N   UNL     1      -3.582  -1.512  -2.874  0.00  0.00    +0.000 N 
ATOM      2  C   UNL     1      -3.134  -1.248  -1.600  0.00  0.00    +0.000 A 
ATOM      3  C   UNL     1      -1.842  -0.799  -1.420  0.00  0.00    +0.000 A 
ATOM      4  C   UNL     1      -1.021  -0.619  -2.549  0.00  0.00    +0.000 A 
ATOM      5  O   UNL     1       0.123  -0.219  -2.418  0.00  0.00    +0.000 OA
ATOM      6  N   UNL     1      -1.507  -0.897  -3.775  0.00  0.00    +0.000 N 
ATOM      7  C   UNL     1      -2.769  -1.333  -3.931  0.00  0.00    +0.000 A 
ATOM      8  O   UNL     1      -3.184  -1.572  -5.049  0.00  0.00    +0.000 OA
ATOM      9  H   UNL     1      -0.905  -0.774  -4.601  0.00  0.00    +0.000 HD
ENDROOT
BRANCH   2  10
ATOM     10  N   UNL     1      -3.964  -1.430  -0.520  0.00  0.00    +0.000 N 
ATOM     11  H   UNL     1      -4.926  -1.766  -0.666  0.00  0.00    +0.000 HD
ATOM     12  H   UNL     1      -3.626  -1.231   0.433  0.00  0.00    +0.000 HD
ENDBRANCH   2  10
BRANCH   3  13
ATOM     13  N   UNL     1      -1.353  -0.519  -0.126  0.00  0.00    +0.000 N 
ATOM     14  C   UNL     1      -1.025   0.745   0.213  0.00  0.00    +0.000 C 
ATOM     15  O   UNL     1      -1.227   1.654  -0.566  0.00  0.00    +0.000 OA
BRANCH  14  16
ATOM     16  C   UNL     1      -0.408   1.029   1.558  0.00  0.00    +0.000 C 
BRANCH  16  17
ATOM     17  S   UNL     1      -0.085   2.804   1.711  0.00  0.00    +0.000 S 
BRANCH  17  18
ATOM     18  C   UNL     1       0.615   2.849   3.328  0.00  0.00    +0.000 A 
ATOM     19  N   UNL     1       0.841   1.864   4.188  0.00  0.00    +0.000 NA
ATOM     20  N   UNL     1       1.356   2.076   5.319  0.00  0.00    +0.000 NA
ATOM     21  C   UNL     1       1.702   3.283   5.719  0.00  0.00    +0.000 A 
ATOM     22  S   UNL     1       1.231   4.235   4.278  0.00  0.00    +0.000 S 
ENDBRANCH  17  18
ENDBRANCH  16  17
ENDBRANCH  14  16
BRANCH  13  23
ATOM     23  C   UNL     1      -1.203  -1.601   0.850  0.00  0.00    +0.000 C 
BRANCH  23  24
ATOM     24  C   UNL     1       0.137  -2.305   0.628  0.00  0.00    +0.000 C 
BRANCH  24  25
ATOM     25  O   UNL     1       1.205  -1.397   0.903  0.00  0.00    +0.000 OA
ATOM     26  C   UNL     1       2.507  -1.958   0.725  0.00  0.00    +0.000 C 
ENDBRANCH  24  25
ENDBRANCH  23  24
ENDBRANCH  13  23
ENDBRANCH   3  13
BRANCH   1  27
ATOM     27  C   UNL     1      -4.951  -1.989  -3.080  0.00  0.00    +0.000 C 
BRANCH  27  29
ATOM     28  C   UNL     1      -7.291  -1.292  -3.612  0.00  0.00    +0.000 C 
ATOM     29  C   UNL     1      -5.885  -0.792  -3.273  0.00  0.00    +0.000 C 
ATOM     30  C   UNL     1      -5.933   0.031  -1.985  0.00  0.00    +0.000 C 
ENDBRANCH  27  29
ENDBRANCH   1  27
TORSDOF 10
ENDMDL
MODEL      419
REMARK  Name = ZINC17249277
REMARK  14 active torsions:
REMARK  status: ('A' for Active; 'I' for Inactive)
REMARK    1  A    between atoms: C_1  and  C_2
REMARK    2  A    between atoms: C_2  and  C_3
REMARK    3  A    between atoms: C_2  and  O_13
REMARK    4  A    between atoms: N_8  and  C_9
REMARK    5  A    between atoms: C_9  and  C_10
REMARK    6  A    between atoms: C_9  and  C_11
REMARK    7  A    between atoms: C_9  and  C_12
REMARK    8  A    between atoms: O_13  and  C_14
REMARK    9  A    between atoms: C_14  and  C_16
REMARK   10  A    between atoms: C_19  and  C_21
REMARK   11  A    between atoms: C_21  and  C_22
REMARK   12  A    between atoms: C_22  and  N_23
REMARK   13  A    between atoms: N_23  and  S_24
REMARK   14  A    between atoms: S_24  and  C_27
REMARK                            x       y       z     vdW  Elec       q    Type
REMARK                         _______ _______ _______ _____ _____    ______ ____
ROOT
ATOM      1  O   UNL     1       4.731   0.838  -0.038  0.00  0.00    +0.000 OA
ENDROOT
BRANCH   1   3
ATOM      2  C   UNL     1       6.575   1.534   1.392  0.00  0.00    +0.000 C 
ATOM      3  C   UNL     1       6.086   1.359  -0.047  0.00  0.00    +0.000 C 
BRANCH   3   4
ATOM      4  C   UNL     1       6.990   0.394  -0.771  0.00  0.00    +0.000 C 
ATOM      5  O   UNL     1       6.537  -0.631  -1.234  0.00  0.00    +0.000 OA
ATOM      6  N   UNL     1       8.302   0.671  -0.905  0.00  0.00    +0.000 N 
ATOM      7  C   UNL     1       9.110  -0.192  -1.552  0.00  0.00    +0.000 C 
ATOM      8  O   UNL     1       8.656  -1.219  -2.016  0.00  0.00    +0.000 OA
ATOM      9  N   UNL     1      10.423   0.085  -1.686  0.00  0.00    +0.000 N 
ATOM     10  H   UNL     1       8.688   1.542  -0.512  0.00  0.00    +0.000 HD
ATOM     11  H   UNL     1      10.808   0.956  -1.293  0.00  0.00    +0.000 HD
BRANCH   9  12
ATOM     12  C   UNL     1      11.301  -0.852  -2.390  0.00  0.00    +0.000 C 
ATOM     13  C   UNL     1      10.812  -1.027  -3.829  0.00  0.00    +0.000 C 
ATOM     14  C   UNL     1      12.729  -0.304  -2.400  0.00  0.00    +0.000 C 
ATOM     15  C   UNL     1      11.280  -2.205  -1.676  0.00  0.00    +0.000 C 
ENDBRANCH   9  12
ENDBRANCH   3   4
ENDBRANCH   1   3
BRANCH   1  16
ATOM     16  C   UNL     1       3.728   1.740  -0.024  0.00  0.00    +0.000 C 
ATOM     17  O   UNL     1       3.981   2.930  -0.019  0.00  0.00    +0.000 OA
BRANCH  16  18
ATOM     18  C   UNL     1       2.336   1.288  -0.013  0.00  0.00    +0.000 A 
ATOM     19  C   UNL     1       1.172   2.041   0.002  0.00  0.00    +0.000 A 
ATOM     20  C   UNL     1      -0.016   1.355   0.009  0.00  0.00    +0.000 A 
ATOM     21  C   UNL     1       0.002  -0.004   0.002  0.00  0.00    +0.000 A 
ATOM     22  S   UNL     1       1.695  -0.377  -0.016  0.00  0.00    +0.000 S 
BRANCH  21  23
ATOM     23  C   UNL     1      -1.166  -0.956   0.008  0.00  0.00    +0.000 C 
BRANCH  23  24
ATOM     24  C   UNL     1      -1.575  -1.270  -1.433  0.00  0.00    +0.000 C 
BRANCH  24  25
ATOM     25  N   UNL     1      -2.710  -2.196  -1.427  0.00  0.00    +0.000 NA
ATOM     26  H   UNL     1      -2.956  -2.705  -0.566  0.00  0.00    +0.000 HD
BRANCH  25  27
ATOM     27  S   UNL     1      -3.599  -2.424  -2.806  0.00  0.00    +0.000 S 
ATOM     28  O   UNL     1      -4.613  -3.348  -2.435  0.00  0.00    +0.000 OA
ATOM     29  O   UNL     1      -3.938  -1.114  -3.240  0.00  0.00    +0.000 OA
ATOM     30  C   UNL     1      -2.451  -3.194  -3.980  0.00  0.00    +0.000 C 
ENDBRANCH  25  27
ENDBRANCH  24  25
ENDBRANCH  23  24
ENDBRANCH  21  23
ENDBRANCH  16  18
ENDBRANCH   1  16
TORSDOF 9
ENDMDL
MODEL      420
REMARK  Name = ZINC28852112
REMARK  9 active torsions:
REMARK  status: ('A' for Active; 'I' for Inactive)
REMARK    1  A    between atoms: C_3  and  N_26
REMARK    2  A    between atoms: C_6  and  C_7
REMARK    3  A    between atoms: C_7  and  O_9
REMARK    4  A    between atoms: O_9  and  C_10
REMARK    5  A    between atoms: C_10  and  C_11
REMARK    6  A    between atoms: N_13  and  N_14
REMARK    7  A    between atoms: C_15  and  C_17
REMARK    8  A    between atoms: C_17  and  O_18
REMARK    9  A    between atoms: O_18  and  C_19
REMARK                            x       y       z     vdW  Elec       q    Type
REMARK                         _______ _______ _______ _____ _____    ______ ____
ROOT
ATOM      1  C   UNL     1       3.895  10.169   0.148  0.00  0.00    +0.000 C 
ENDROOT
BRANCH   1   2
ATOM      2  C   UNL     1       4.100   8.690   0.347  0.00  0.00    +0.000 C 
ATOM      3  O   UNL     1       5.221   8.246   0.483  0.00  0.00    +0.000 OA
ATOM      4  N   UNL     1       3.039   7.859   0.373  0.00  0.00    +0.000 N 
ATOM      5  H   UNL     1       2.087   8.236   0.258  0.00  0.00    +0.000 HD
BRANCH   4   6
ATOM      6  N   UNL     1       3.230   6.484   0.558  0.00  0.00    +0.000 N 
ATOM      7  C   UNL     1       2.168   5.654   0.584  0.00  0.00    +0.000 C 
ATOM      8  O   UNL     1       1.048   6.098   0.449  0.00  0.00    +0.000 OA
ATOM      9  H   UNL     1       4.181   6.107   0.673  0.00  0.00    +0.000 HD
BRANCH   7  10
ATOM     10  C   UNL     1       2.374   4.174   0.783  0.00  0.00    +0.000 C 
BRANCH  10  11
ATOM     11  O   UNL     1       1.107   3.512   0.774  0.00  0.00    +0.000 OA
BRANCH  11  12
ATOM     12  C   UNL     1       1.115   2.163   0.942  0.00  0.00    +0.000 A 
ATOM     13  C   UNL     1      -0.079   1.457   0.944  0.00  0.00    +0.000 A 
ATOM     14  C   UNL     1      -0.069   0.086   1.114  0.00  0.00    +0.000 A 
ATOM     15  C   UNL     1       1.131  -0.582   1.283  0.00  0.00    +0.000 A 
ATOM     16  C   UNL     1       2.322   0.120   1.282  0.00  0.00    +0.000 A 
ATOM     17  C   UNL     1       2.317   1.492   1.113  0.00  0.00    +0.000 A 
ATOM     18 CL   UNL     1       1.141  -2.305   1.497  0.00  0.00    +0.000 Cl
ENDBRANCH  11  12
ENDBRANCH  10  11
ENDBRANCH   7  10
ENDBRANCH   4   6
ENDBRANCH   1   2
BRANCH   1  19
ATOM     19  O   UNL     1       5.182  10.842   0.157  0.00  0.00    +0.000 OA
BRANCH  19  20
ATOM     20  C   UNL     1       5.174  12.179  -0.009  0.00  0.00    +0.000 C 
ATOM     21  O   UNL     1       4.121  12.767  -0.158  0.00  0.00    +0.000 OA
BRANCH  20  27
ATOM     22  C   UNL     1       7.656  12.255   0.166  0.00  0.00    +0.000 A 
ATOM     23  C   UNL     1       8.839  12.958   0.159  0.00  0.00    +0.000 A 
ATOM     24  C   UNL     1       8.829  14.339  -0.013  0.00  0.00    +0.000 A 
ATOM     25  C   UNL     1       7.625  15.013  -0.184  0.00  0.00    +0.000 A 
ATOM     26  C   UNL     1       6.438  14.317  -0.184  0.00  0.00    +0.000 A 
ATOM     27  C   UNL     1       6.444  12.929  -0.011  0.00  0.00    +0.000 A 
BRANCH  24  28
ATOM     28  N   UNL     1      10.030  15.048  -0.014  0.00  0.00    +0.000 N 
ATOM     29  C   UNL     1      10.074  16.299   0.485  0.00  0.00    +0.000 C 
ATOM     30  O   UNL     1       9.092  16.773   1.024  0.00  0.00    +0.000 OA
ATOM     31  N   UNL     1      11.206  17.024   0.388  0.00  0.00    +0.000 N 
ATOM     32  H   UNL     1      10.883  14.616  -0.396  0.00  0.00    +0.000 HD
ATOM     33  H   UNL     1      12.037  16.622  -0.069  0.00  0.00    +0.000 HD
ATOM     34  H   UNL     1      11.239  17.980   0.769  0.00  0.00    +0.000 HD
ENDBRANCH  24  28
ENDBRANCH  20  27
ENDBRANCH  19  20
ENDBRANCH   1  19
TORSDOF 9
ENDMDL
MODEL      421
REMARK  Name = ZINC16953706
REMARK  6 active torsions:
REMARK  status: ('A' for Active; 'I' for Inactive)
REMARK    1  A    between atoms: C_1  and  C_2
REMARK    2  A    between atoms: C_2  and  C_24
REMARK    3  A    between atoms: C_5  and  C_20
REMARK    4  A    between atoms: C_7  and  N_10
REMARK    5  A    between atoms: C_18  and  N_19
REMARK    6  A    between atoms: C_20  and  N_21
REMARK                            x       y       z     vdW  Elec       q    Type
REMARK                         _______ _______ _______ _____ _____    ______ ____
ROOT
ATOM      1  C   UNL     1      -3.167   6.244   1.929  0.00  0.00    +0.000 C 
ATOM      2  C   UNL     1      -1.767   5.803   2.360  0.00  0.00    +0.000 C 
ATOM      3  O   UNL     1      -0.826   6.873   2.131  0.00  0.00    +0.000 OA
ATOM      4  C   UNL     1       0.386   6.273   1.654  0.00  0.00    +0.000 C 
ATOM      5  C   UNL     1       0.676   6.771   0.226  0.00  0.00    +0.000 C 
ATOM      6  O   UNL     1       1.117   5.627  -0.516  0.00  0.00    +0.000 OA
ATOM      7  C   UNL     1       0.493   4.458   0.022  0.00  0.00    +0.000 C 
ATOM      8  C   UNL     1       0.077   4.768   1.468  0.00  0.00    +0.000 C 
ATOM      9  O   UNL     1      -1.353   4.672   1.582  0.00  0.00    +0.000 OA
ATOM     10  C   UNL     1      -1.773   5.436   3.845  0.00  0.00    +0.000 C 
ENDROOT
BRANCH   7  11
ATOM     11  N   UNL     1       1.439   3.339   0.006  0.00  0.00    +0.000 N 
ATOM     12  C   UNL     1       2.799   3.433  -0.006  0.00  0.00    +0.000 A 
ATOM     13  N   UNL     1       3.326   2.243  -0.018  0.00  0.00    +0.000 NA
ATOM     14  C   UNL     1       2.341   1.313  -0.013  0.00  0.00    +0.000 A 
ATOM     15  C   UNL     1       1.118   2.005   0.002  0.00  0.00    +0.000 A 
ATOM     16  N   UNL     1      -0.016   1.312   0.009  0.00  0.00    +0.000 NA
ATOM     17  C   UNL     1       0.002  -0.004   0.002  0.00  0.00    +0.000 A 
ATOM     18  N   UNL     1       1.126  -0.698  -0.012  0.00  0.00    +0.000 NA
ATOM     19  C   UNL     1       2.308  -0.092  -0.021  0.00  0.00    +0.000 A 
BRANCH  19  20
ATOM     20  N   UNL     1       3.481  -0.827  -0.036  0.00  0.00    +0.000 N 
ATOM     21  H   UNL     1       4.386  -0.336  -0.042  0.00  0.00    +0.000 HD
ATOM     22  H   UNL     1       3.450  -1.857  -0.041  0.00  0.00    +0.000 HD
ENDBRANCH  19  20
ENDBRANCH   7  11
BRANCH   5  23
ATOM     23  C   UNL     1       1.775   7.836   0.254  0.00  0.00    +0.000 C 
BRANCH  23  24
ATOM     24  N   UNL     1       1.986   8.356  -1.099  0.00  0.00    +0.000 NA
ATOM     25  N   UNL     1       1.832   9.449  -1.312  0.00  0.00    +0.000 NA
ATOM     26  N   UNL     1       1.679  10.542  -1.524  0.00  0.00    +0.000 NA
ENDBRANCH  23  24
ENDBRANCH   5  23
TORSDOF 4
ENDMDL
MODEL      422
REMARK  Name = ZINC15226564
REMARK  4 active torsions:
REMARK  status: ('A' for Active; 'I' for Inactive)
REMARK    1  A    between atoms: C_4  and  N_7
REMARK    2  A    between atoms: C_9  and  N_24
REMARK    3  A    between atoms: C_13  and  C_15
REMARK    4  A    between atoms: C_20  and  C_21
REMARK                            x       y       z     vdW  Elec       q    Type
REMARK                         _______ _______ _______ _____ _____    ______ ____
ROOT
ATOM      1  N   UNL     1       3.588   2.123  -0.065  0.00  0.00    +0.000 N 
ATOM      2  N   UNL     1       4.883   1.583  -0.108  0.00  0.00    +0.000 NA
ATOM      3  C   UNL     1       5.789   2.664  -0.132  0.00  0.00    +0.000 C 
ATOM      4  C   UNL     1       5.101   3.806  -0.097  0.00  0.00    +0.000 C 
ATOM      5  N   UNL     1       3.731   3.516  -0.055  0.00  0.00    +0.000 N 
ATOM      6  N   UNL     1       3.049   4.737  -0.019  0.00  0.00    +0.000 NA
ATOM      7  C   UNL     1       3.903   5.717  -0.038  0.00  0.00    +0.000 C 
ATOM      8  N   UNL     1       5.200   5.212  -0.086  0.00  0.00    +0.000 N 
ATOM      9  H   UNL     1       4.997   1.015  -0.959  0.00  0.00    +0.000 HD
ATOM     10  H   UNL     1       5.050   1.009   0.731  0.00  0.00    +0.000 HD
ATOM     11  H   UNL     1       6.070   5.763  -0.109  0.00  0.00    +0.000 HD
ENDROOT
BRANCH   1  15
ATOM     12  C   UNL     1       0.012  -0.008   0.034  0.00  0.00    +0.000 A 
ATOM     13  C   UNL     1      -0.008   1.375   0.050  0.00  0.00    +0.000 A 
ATOM     14  C   UNL     1       1.176   2.084   0.017  0.00  0.00    +0.000 A 
ATOM     15  C   UNL     1       2.389   1.408  -0.032  0.00  0.00    +0.000 A 
ATOM     16  C   UNL     1       2.405   0.019  -0.047  0.00  0.00    +0.000 A 
ATOM     17  C   UNL     1       1.217  -0.684  -0.014  0.00  0.00    +0.000 A 
ENDBRANCH   1  15
BRANCH   7  18
ATOM     18  C   UNL     1       3.551   7.148  -0.012  0.00  0.00    +0.000 A 
ATOM     19  C   UNL     1       4.551   8.117   0.089  0.00  0.00    +0.000 A 
ATOM     20  C   UNL     1       4.216   9.454   0.113  0.00  0.00    +0.000 A 
ATOM     21  C   UNL     1       2.889   9.848   0.037  0.00  0.00    +0.000 A 
ATOM     22  C   UNL     1       1.884   8.910  -0.062  0.00  0.00    +0.000 A 
ATOM     23  C   UNL     1       2.200   7.550  -0.095  0.00  0.00    +0.000 A 
BRANCH  23  24
ATOM     24  C   UNL     1       1.133   6.543  -0.207  0.00  0.00    +0.000 C 
ATOM     25  O   UNL     1       1.171   5.713  -1.095  0.00  0.00    +0.000 OA
ATOM     26  O   UNL     1       0.112   6.541   0.674  0.00  0.00    +0.000 OA
ENDBRANCH  23  24
ENDBRANCH   7  18
BRANCH   3  27
ATOM     27  N   UNL     1       7.194   2.556  -0.179  0.00  0.00    +0.000 N 
ATOM     28  H   UNL     1       7.573   1.598  -0.197  0.00  0.00    +0.000 HD
ATOM     29  H   UNL     1       7.817   3.376  -0.196  0.00  0.00    +0.000 HD
ENDBRANCH   3  27
TORSDOF 4
ENDMDL
MODEL      423
REMARK  Name = ZINC32072088
REMARK  7 active torsions:
REMARK  status: ('A' for Active; 'I' for Inactive)
REMARK    1  A    between atoms: C_1  and  C_2
REMARK    2  A    between atoms: C_3  and  O_20
REMARK    3  A    between atoms: N_4  and  C_10
REMARK    4  A    between atoms: C_5  and  O_6
REMARK    5  A    between atoms: C_12  and  N_17
REMARK    6  A    between atoms: C_13  and  C_15
REMARK    7  A    between atoms: C_15  and  O_16
REMARK                            x       y       z     vdW  Elec       q    Type
REMARK                         _______ _______ _______ _____ _____    ______ ____
ROOT
ATOM      1  C   UNL     1      -5.880   4.239   3.124  0.00  0.00    +0.000 C 
ATOM      2  C   UNL     1      -5.285   3.245   2.124  0.00  0.00    +0.000 C 
ATOM      3  C   UNL     1      -3.759   3.362   2.135  0.00  0.00    +0.000 C 
ATOM      4  N   UNL     1      -3.176   2.217   1.434  0.00  0.00    +0.000 N 
ATOM      5  C   UNL     1      -3.737   0.999   1.515  0.00  0.00    +0.000 C 
ATOM      6  N   UNL     1      -4.903   0.803   2.152  0.00  0.00    +0.000 NA
ATOM      7  C   UNL     1      -5.677   1.843   2.515  0.00  0.00    +0.000 C 
ATOM      8  O   UNL     1      -6.689   1.651   3.155  0.00  0.00    +0.000 OA
ATOM      9 CL   UNL     1      -5.906   3.607   0.471  0.00  0.00    +0.000 Cl
ENDROOT
BRANCH   4  10
ATOM     10  C   UNL     1      -1.966   2.402   0.628  0.00  0.00    +0.000 C 
ATOM     11  C   UNL     1      -0.788   1.610   1.237  0.00  0.00    +0.000 C 
ATOM     12  C   UNL     1      -0.013   1.086   0.008  0.00  0.00    +0.000 C 
ATOM     13  C   UNL     1      -0.811   1.623  -1.200  0.00  0.00    +0.000 C 
ATOM     14  O   UNL     1      -2.148   1.838  -0.689  0.00  0.00    +0.000 OA
BRANCH  12  15
ATOM     15  N   UNL     1       1.353   1.617  -0.002  0.00  0.00    +0.000 NA
ATOM     16  N   UNL     1       2.090   1.286   0.779  0.00  0.00    +0.000 NA
ATOM     17  N   UNL     1       2.827   0.956   1.561  0.00  0.00    +0.000 NA
ENDBRANCH  12  15
BRANCH  13  18
ATOM     18  C   UNL     1      -0.829   0.590  -2.329  0.00  0.00    +0.000 C 
BRANCH  18  19
ATOM     19  O   UNL     1      -1.471   1.149  -3.477  0.00  0.00    +0.000 OA
ATOM     20  H   UNL     1      -0.975   1.953  -3.774  0.00  0.00    +0.000 HD
ENDBRANCH  18  19
ENDBRANCH  13  18
ENDBRANCH   4  10
BRANCH   3  21
ATOM     21  O   UNL     1      -3.292   3.383   3.485  0.00  0.00    +0.000 OA
ATOM     22  H   UNL     1      -3.561   2.546   3.941  0.00  0.00    +0.000 HD
ENDBRANCH   3  21
BRANCH   5  23
ATOM     23  O   UNL     1      -3.174   0.051   1.004  0.00  0.00    +0.000 OA
ATOM     24  H   UNL     1      -2.274   0.030   1.417  0.00  0.00    +0.000 HD
ENDBRANCH   5  23
TORSDOF 6
ENDMDL
MODEL      424
REMARK  Name = ZINC15320698
REMARK  7 active torsions:
REMARK  status: ('A' for Active; 'I' for Inactive)
REMARK    1  A    between atoms: C_1  and  C_2
REMARK    2  A    between atoms: C_2  and  C_21
REMARK    3  A    between atoms: C_5  and  C_6
REMARK    4  A    between atoms: C_10  and  O_13
REMARK    5  A    between atoms: C_11  and  O_12
REMARK    6  A    between atoms: O_13  and  C_14
REMARK    7  A    between atoms: N_17  and  C_20
REMARK                            x       y       z     vdW  Elec       q    Type
REMARK                         _______ _______ _______ _____ _____    ______ ____
ROOT
ATOM      1  C   UNL     1       5.992   3.716   0.473  0.00  0.00    +0.000 C 
ATOM      2  C   UNL     1       4.786   3.396  -0.412  0.00  0.00    +0.000 C 
ATOM      3  C   UNL     1       4.377   4.623  -1.208  0.00  0.00    +0.000 C 
ATOM      4  C   UNL     1       2.844   4.295  -1.374  0.00  0.00    +0.000 C 
ATOM      5  C   UNL     1       2.460   3.930   0.000  0.00  0.00    +0.000 C 
ATOM      6  C   UNL     1       2.474   5.190  -2.449  0.00  0.00    +0.000 C 
ATOM      7  O   UNL     1       1.408   5.747  -2.600  0.00  0.00    +0.000 OA
ATOM      8  N   UNL     1       3.586   5.282  -3.250  0.00  0.00    +0.000 N 
ATOM      9  C   UNL     1       4.704   4.760  -2.662  0.00  0.00    +0.000 C 
ATOM     10  O   UNL     1       5.747   4.468  -3.206  0.00  0.00    +0.000 OA
ATOM     11  C   UNL     1       3.575   5.876  -4.589  0.00  0.00    +0.000 C 
ATOM     12  N   UNL     1       3.602   3.061   0.423  0.00  0.00    +0.000 N 
ATOM     13  H   UNL     1       3.818   3.234   1.416  0.00  0.00    +0.000 HD
ATOM     14  H   UNL     1       3.351   2.071   0.287  0.00  0.00    +0.000 HD
ENDROOT
BRANCH   5  15
ATOM     15  C   UNL     1       1.162   3.164   0.008  0.00  0.00    +0.000 A 
ATOM     16  C   UNL     1       1.176   1.782   0.000  0.00  0.00    +0.000 A 
ATOM     17  C   UNL     1      -0.013   1.076   0.008  0.00  0.00    +0.000 A 
ATOM     18  C   UNL     1      -1.220   1.749   0.017  0.00  0.00    +0.000 A 
ATOM     19  C   UNL     1      -1.241   3.134   0.031  0.00  0.00    +0.000 A 
ATOM     20  C   UNL     1      -0.044   3.845   0.023  0.00  0.00    +0.000 A 
BRANCH  20  21
ATOM     21  O   UNL     1      -0.059   5.205   0.030  0.00  0.00    +0.000 OA
ATOM     22  H   UNL     1       0.461   5.469  -0.770  0.00  0.00    +0.000 HD
ENDBRANCH  20  21
BRANCH  19  23
ATOM     23  O   UNL     1      -2.428   3.798   0.046  0.00  0.00    +0.000 OA
ATOM     24  C   UNL     1      -3.615   3.004   0.053  0.00  0.00    +0.000 C 
ENDBRANCH  19  23
ENDBRANCH   5  15
BRANCH   2  25
ATOM     25  C   UNL     1       5.110   2.256  -1.343  0.00  0.00    +0.000 C 
ATOM     26  O   UNL     1       5.507   2.483  -2.461  0.00  0.00    +0.000 OA
ATOM     27  O   UNL     1       4.958   0.988  -0.929  0.00  0.00    +0.000 OA
ENDBRANCH   2  25
TORSDOF 4
ENDMDL
MODEL      425
REMARK  Name = ZINC06425982
REMARK  6 active torsions:
REMARK  status: ('A' for Active; 'I' for Inactive)
REMARK    1  A    between atoms: C_1  and  C_2
REMARK    2  A    between atoms: C_2  and  N_3
REMARK    3  A    between atoms: C_5  and  C_20
REMARK    4  A    between atoms: C_10  and  N_15
REMARK    5  A    between atoms: C_12  and  C_13
REMARK    6  A    between atoms: C_18  and  N_23
REMARK                            x       y       z     vdW  Elec       q    Type
REMARK                         _______ _______ _______ _____ _____    ______ ____
ROOT
ATOM      1  N   UNL     1      -1.213   2.001   0.019  0.00  0.00    +0.000 N 
ATOM      2  C   UNL     1      -1.292   3.339   0.032  0.00  0.00    +0.000 A 
ATOM      3  C   UNL     1      -0.171   4.142   0.026  0.00  0.00    +0.000 A 
ATOM      4  C   UNL     1       1.158   3.505   0.010  0.00  0.00    +0.000 A 
ATOM      5  O   UNL     1       2.180   4.168   0.004  0.00  0.00    +0.000 OA
ATOM      6  C   UNL     1       1.197   2.035   0.002  0.00  0.00    +0.000 A 
ATOM      7  C   UNL     1      -0.016   1.323   0.009  0.00  0.00    +0.000 A 
ATOM      8  C   UNL     1       1.138  -0.681  -0.012  0.00  0.00    +0.000 A 
ATOM      9  C   UNL     1       2.375  -0.029  -0.021  0.00  0.00    +0.000 A 
ATOM     10  C   UNL     1       2.412   1.341  -0.014  0.00  0.00    +0.000 A 
ATOM     11  C   UNL     1       3.726   2.079  -0.023  0.00  0.00    +0.000 C 
ATOM     12  F   UNL     1       3.522  -0.742  -0.036  0.00  0.00    +0.000 F 
ATOM     13  N   UNL     1      -0.066  -0.044   0.002  0.00  0.00    +0.000 NA
ENDROOT
BRANCH   8  14
ATOM     14  N   UNL     1       1.102  -2.066  -0.019  0.00  0.00    +0.000 N 
ATOM     15  C   UNL     1       1.793  -2.620   1.166  0.00  0.00    +0.000 C 
ATOM     16  C   UNL     1       2.462  -3.935   0.725  0.00  0.00    +0.000 C 
ATOM     17  C   UNL     1       2.134  -4.070  -0.780  0.00  0.00    +0.000 C 
ATOM     18  C   UNL     1       1.821  -2.612  -1.199  0.00  0.00    +0.000 C 
BRANCH  17  19
ATOM     19  N   UNL     1       3.310  -4.569  -1.514  0.00  0.00    +0.000 N 
ATOM     20  H   UNL     1       3.580  -5.489  -1.137  0.00  0.00    +0.000 HD
ATOM     21  H   UNL     1       4.092  -3.909  -1.390  0.00  0.00    +0.000 HD
ATOM     22  H   UNL     1       3.086  -4.657  -2.515  0.00  0.00    +0.000 HD
ENDBRANCH  17  19
ENDBRANCH   8  14
BRANCH   3  23
ATOM     23  C   UNL     1      -0.298   5.606   0.034  0.00  0.00    +0.000 C 
ATOM     24  O   UNL     1       0.697   6.303   0.028  0.00  0.00    +0.000 OA
ATOM     25  O   UNL     1      -1.520   6.176   0.049  0.00  0.00    +0.000 OA
ENDBRANCH   3  23
BRANCH   1  27
ATOM     26  C   UNL     1      -2.816   0.843   1.457  0.00  0.00    +0.000 C 
ATOM     27  C   UNL     1      -2.457   1.227   0.021  0.00  0.00    +0.000 C 
ENDBRANCH   1  27
TORSDOF 4
ENDMDL
MODEL      426
REMARK  Name = ZINC16952887
REMARK  6 active torsions:
REMARK  status: ('A' for Active; 'I' for Inactive)
REMARK    1  A    between atoms: C_1  and  C_2
REMARK    2  A    between atoms: C_2  and  C_23
REMARK    3  A    between atoms: C_7  and  C_10
REMARK    4  A    between atoms: C_11  and  C_18
REMARK    5  A    between atoms: C_12  and  C_15
REMARK    6  A    between atoms: C_18  and  N_20
REMARK                            x       y       z     vdW  Elec       q    Type
REMARK                         _______ _______ _______ _____ _____    ______ ____
ROOT
ATOM      1  C   UNL     1       1.993   2.405   1.099  0.00  0.00    +0.000 A 
ATOM      2  C   UNL     1       1.254   1.971   0.001  0.00  0.00    +0.000 A 
ATOM      3  C   UNL     1       1.990   2.423  -1.132  0.00  0.00    +0.000 A 
ATOM      4  N   UNL     1       3.052   3.050  -0.673  0.00  0.00    +0.000 NA
ATOM      5  N   UNL     1       3.071   3.046   0.610  0.00  0.00    +0.000 NA
ENDROOT
BRANCH   1  12
ATOM      6  C   UNL     1       0.907  -1.564   5.010  0.00  0.00    +0.000 C 
ATOM      7  C   UNL     1       2.116  -0.991   4.268  0.00  0.00    +0.000 C 
ATOM      8  O   UNL     1       2.762   0.035   5.077  0.00  0.00    +0.000 OA
ATOM      9  C   UNL     1       2.141   1.205   4.612  0.00  0.00    +0.000 C 
ATOM     10  C   UNL     1       2.702   2.600   4.639  0.00  0.00    +0.000 C 
ATOM     11  O   UNL     1       2.294   3.208   3.384  0.00  0.00    +0.000 OA
ATOM     12  C   UNL     1       1.652   2.196   2.552  0.00  0.00    +0.000 C 
ATOM     13  C   UNL     1       2.255   0.909   3.062  0.00  0.00    +0.000 C 
ATOM     14  O   UNL     1       1.682  -0.365   3.026  0.00  0.00    +0.000 OA
ATOM     15  C   UNL     1       3.115  -2.109   3.963  0.00  0.00    +0.000 C 
ENDBRANCH   1  12
BRANCH   3  16
ATOM     16  C   UNL     1       1.630   2.225  -2.550  0.00  0.00    +0.000 C 
ATOM     17  O   UNL     1       0.614   1.624  -2.841  0.00  0.00    +0.000 OA
ATOM     18  N   UNL     1       2.427   2.711  -3.522  0.00  0.00    +0.000 N 
ATOM     19  H   UNL     1       3.288   3.220  -3.276  0.00  0.00    +0.000 HD
ATOM     20  H   UNL     1       2.176   2.573  -4.511  0.00  0.00    +0.000 HD
ENDBRANCH   3  16
BRANCH   2  21
ATOM     21  C   UNL     1      -0.015   1.216   0.009  0.00  0.00    +0.000 C 
ATOM     22  O   UNL     1       0.002  -0.004   0.002  0.00  0.00    +0.000 OA
BRANCH  21  23
ATOM     23  N   UNL     1      -1.175   1.865   0.018  0.00  0.00    +0.000 NA
ATOM     24  N   UNL     1      -2.141   1.290   0.019  0.00  0.00    +0.000 NA
ATOM     25  N   UNL     1      -3.107   0.715   0.021  0.00  0.00    +0.000 NA
ENDBRANCH  21  23
ENDBRANCH   2  21
TORSDOF 4
ENDMDL
MODEL      427
REMARK  Name = ZINC05114539
REMARK  6 active torsions:
REMARK  status: ('A' for Active; 'I' for Inactive)
REMARK    1  A    between atoms: C_1  and  C_2
REMARK    2  A    between atoms: C_7  and  C_14
REMARK    3  A    between atoms: C_11  and  N_23
REMARK    4  A    between atoms: C_12  and  O_13
REMARK    5  A    between atoms: C_14  and  O_15
REMARK    6  A    between atoms: O_15  and  C_16
REMARK                            x       y       z     vdW  Elec       q    Type
REMARK                         _______ _______ _______ _____ _____    ______ ____
ROOT
ATOM      1  C   UNL     1       7.079   2.381   3.079  0.00  0.00    +0.000 C 
ATOM      2  C   UNL     1       6.196   3.626   2.977  0.00  0.00    +0.000 C 
ATOM      3  C   UNL     1       6.150   4.101   1.535  0.00  0.00    +0.000 C 
ATOM      4  O   UNL     1       6.833   5.028   1.153  0.00  0.00    +0.000 OA
ATOM      5  C   UNL     1       5.246   3.393   0.625  0.00  0.00    +0.000 A 
ATOM      6  C   UNL     1       4.211   2.564   1.096  0.00  0.00    +0.000 A 
ATOM      7  C   UNL     1       3.553   2.060  -0.021  0.00  0.00    +0.000 A 
ATOM      8  C   UNL     1       4.180   2.562  -1.122  0.00  0.00    +0.000 A 
ATOM      9  N   UNL     1       5.198   3.375  -0.736  0.00  0.00    +0.000 N 
ATOM     10  C   UNL     1       5.884   3.942  -1.911  0.00  0.00    +0.000 C 
ATOM     11  C   UNL     1       5.477   3.046  -3.102  0.00  0.00    +0.000 C 
ATOM     12  C   UNL     1       4.107   2.506  -2.635  0.00  0.00    +0.000 C 
ATOM     13  C   UNL     1       3.991   2.364   2.547  0.00  0.00    +0.000 C 
ATOM     14  O   UNL     1       3.234   1.523   2.989  0.00  0.00    +0.000 OA
ATOM     15  C   UNL     1       4.786   3.288   3.425  0.00  0.00    +0.000 C 
ATOM     16  N   UNL     1       4.295   3.769   4.505  0.00  0.00    +0.000 NA
ATOM     17  H   UNL     1       4.875   4.399   5.077  0.00  0.00    +0.000 HD
ENDROOT
BRANCH  11  18
ATOM     18  N   UNL     1       5.322   3.861  -4.320  0.00  0.00    +0.000 N 
ATOM     19  H   UNL     1       6.215   4.329  -4.531  0.00  0.00    +0.000 HD
ATOM     20  H   UNL     1       4.594   4.573  -4.161  0.00  0.00    +0.000 HD
ATOM     21  H   UNL     1       5.050   3.260  -5.110  0.00  0.00    +0.000 HD
ENDBRANCH  11  18
BRANCH  12  22
ATOM     22  O   UNL     1       3.049   3.338  -3.115  0.00  0.00    +0.000 OA
ATOM     23  H   UNL     1       3.214   4.270  -2.826  0.00  0.00    +0.000 HD
ENDBRANCH  12  22
BRANCH   7  24
ATOM     24  C   UNL     1       2.371   1.126  -0.015  0.00  0.00    +0.000 C 
BRANCH  24  25
ATOM     25  O   UNL     1       1.142   1.900   0.001  0.00  0.00    +0.000 OA
BRANCH  25  26
ATOM     26  C   UNL     1      -0.014   1.211   0.009  0.00  0.00    +0.000 C 
ATOM     27  O   UNL     1       0.002  -0.004   0.002  0.00  0.00    +0.000 OA
ATOM     28  N   UNL     1      -1.191   1.869   0.018  0.00  0.00    +0.000 N 
ATOM     29  H   UNL     1      -1.205   2.899   0.019  0.00  0.00    +0.000 HD
ATOM     30  H   UNL     1      -2.075   1.342   0.024  0.00  0.00    +0.000 HD
ENDBRANCH  25  26
ENDBRANCH  24  25
ENDBRANCH   7  24
TORSDOF 5
ENDMDL
MODEL      428
REMARK  Name = ZINC06279516
REMARK  7 active torsions:
REMARK  status: ('A' for Active; 'I' for Inactive)
REMARK    1  A    between atoms: C_1  and  N_2
REMARK    2  A    between atoms: N_2  and  C_17
REMARK    3  A    between atoms: C_4  and  C_15
REMARK    4  A    between atoms: C_5  and  C_12
REMARK    5  A    between atoms: C_6  and  C_10
REMARK    6  A    between atoms: C_7  and  N_9
REMARK    7  A    between atoms: C_12  and  C_13
REMARK                            x       y       z     vdW  Elec       q    Type
REMARK                         _______ _______ _______ _____ _____    ______ ____
ROOT
ATOM      1  C   UNL     1       1.159   3.408  -4.400  0.00  0.00    +0.000 C 
ATOM      2  N   UNL     1      -0.256   3.043  -4.500  0.00  0.00    +0.000 N 
ATOM      3  C   UNL     1      -0.827   2.363  -3.535  0.00  0.00    +0.000 A 
ATOM      4  C   UNL     1      -0.053   1.851  -2.385  0.00  0.00    +0.000 A 
ATOM      5  C   UNL     1      -0.748   1.611  -1.202  0.00  0.00    +0.000 A 
ATOM      6  C   UNL     1      -2.136   1.827  -1.168  0.00  0.00    +0.000 A 
ATOM      7  C   UNL     1      -2.845   2.093  -2.345  0.00  0.00    +0.000 A 
ATOM      8  N   UNL     1      -2.188   2.089  -3.545  0.00  0.00    +0.000 N 
ATOM      9  H   UNL     1      -2.686   1.889  -4.425  0.00  0.00    +0.000 HD
ENDROOT
BRANCH   2  10
ATOM     10  C   UNL     1      -1.032   3.436  -5.678  0.00  0.00    +0.000 C 
ATOM     11  C   UNL     1      -0.386   2.852  -6.945  0.00  0.00    +0.000 C 
ATOM     12  C   UNL     1      -0.998   3.514  -8.203  0.00  0.00    +0.000 C 
ATOM     13  S   UNL     1      -1.497   5.173  -7.584  0.00  0.00    +0.000 S 
ATOM     14  O   UNL     1      -2.908   5.299  -7.686  0.00  0.00    +0.000 OA
ATOM     15  O   UNL     1      -0.661   6.158  -8.176  0.00  0.00    +0.000 OA
ATOM     16  C   UNL     1      -1.039   4.986  -5.809  0.00  0.00    +0.000 C 
ENDBRANCH   2  10
BRANCH   7  17
ATOM     17  N   UNL     1      -4.184   2.349  -2.297  0.00  0.00    +0.000 N 
ATOM     18  H   UNL     1      -4.675   2.346  -1.392  0.00  0.00    +0.000 HD
ATOM     19  H   UNL     1      -4.704   2.544  -3.165  0.00  0.00    +0.000 HD
ENDBRANCH   7  17
BRANCH   6  20
ATOM     20  C   UNL     1      -2.831   1.781   0.083  0.00  0.00    +0.000 C 
ATOM     21  N   UNL     1      -3.383   1.744   1.076  0.00  0.00    +0.000 NA
ENDBRANCH   6  20
BRANCH   4  22
ATOM     22  C   UNL     1       1.355   1.613  -2.482  0.00  0.00    +0.000 C 
ATOM     23  N   UNL     1       2.473   1.423  -2.559  0.00  0.00    +0.000 NA
ENDBRANCH   4  22
BRANCH   5  24
ATOM     24  C   UNL     1      -0.022   1.120   0.023  0.00  0.00    +0.000 C 
BRANCH  24  25
ATOM     25  C   UNL     1      -0.711   1.605   1.230  0.00  0.00    +0.000 C 
ATOM     26  N   UNL     1      -1.243   1.980   2.161  0.00  0.00    +0.000 NA
ENDBRANCH  24  25
ENDBRANCH   5  24
TORSDOF 6
ENDMDL
MODEL      429
REMARK  Name = ZINC20477642
REMARK  6 active torsions:
REMARK  status: ('A' for Active; 'I' for Inactive)
REMARK    1  A    between atoms: C_1  and  N_2
REMARK    2  A    between atoms: C_8  and  C_20
REMARK    3  A    between atoms: C_9  and  C_16
REMARK    4  A    between atoms: C_9  and  C_18
REMARK    5  A    between atoms: C_10  and  N_15
REMARK    6  A    between atoms: C_11  and  C_12
REMARK                            x       y       z     vdW  Elec       q    Type
REMARK                         _______ _______ _______ _____ _____    ______ ____
ROOT
ATOM      1  C   UNL     1      -0.337   3.684   4.293  0.00  0.00    +0.000 C 
ATOM      2  N   UNL     1       0.294   4.344   3.141  0.00  0.00    +0.000 N 
ATOM      3  C   UNL     1       0.940   5.606   3.544  0.00  0.00    +0.000 C 
ATOM      4  C   UNL     1       1.416   6.298   2.291  0.00  0.00    +0.000 C 
ATOM      5  C   UNL     1       1.814   5.587   1.253  0.00  0.00    +0.000 C 
ATOM      6  C   UNL     1       1.873   4.086   1.262  0.00  0.00    +0.000 C 
ATOM      7  C   UNL     1       1.269   3.459   2.498  0.00  0.00    +0.000 C 
ATOM      8  C   UNL     1       1.208   3.576  -0.019  0.00  0.00    +0.000 C 
ATOM      9  C   UNL     1       2.006   4.070  -1.226  0.00  0.00    +0.000 C 
ATOM     10  C   UNL     1       2.251   5.548  -1.162  0.00  0.00    +0.000 C 
ATOM     11  C   UNL     1       2.177   6.272  -0.014  0.00  0.00    +0.000 C 
ATOM     12  H   UNL     1      -0.449   4.560   2.461  0.00  0.00    +0.000 HD
ENDROOT
BRANCH   8  13
ATOM     13  C   UNL     1       1.187   2.069  -0.010  0.00  0.00    +0.000 A 
ATOM     14  C   UNL     1      -0.013   1.376  -0.070  0.00  0.00    +0.000 A 
ATOM     15  C   UNL     1       0.007  -0.006  -0.059  0.00  0.00    +0.000 A 
ATOM     16  N   UNL     1       1.148  -0.664   0.006  0.00  0.00    +0.000 NA
ATOM     17  C   UNL     1       2.307  -0.038   0.065  0.00  0.00    +0.000 A 
ATOM     18  C   UNL     1       2.366   1.343   0.059  0.00  0.00    +0.000 A 
ENDBRANCH   8  13
BRANCH  11  19
ATOM     19  C   UNL     1       2.450   7.710  -0.026  0.00  0.00    +0.000 C 
ATOM     20  O   UNL     1       3.527   8.128   0.356  0.00  0.00    +0.000 OA
ATOM     21  O   UNL     1       1.508   8.572  -0.461  0.00  0.00    +0.000 OA
ENDBRANCH  11  19
BRANCH  10  22
ATOM     22  N   UNL     1       2.563   6.200  -2.317  0.00  0.00    +0.000 N 
ATOM     23  H   UNL     1       2.631   5.699  -3.215  0.00  0.00    +0.000 HD
ATOM     24  H   UNL     1       2.734   7.215  -2.288  0.00  0.00    +0.000 HD
ENDBRANCH  10  22
BRANCH   9  25
ATOM     25  C   UNL     1       3.301   3.372  -1.263  0.00  0.00    +0.000 C 
ATOM     26  N   UNL     1       4.301   2.833  -1.291  0.00  0.00    +0.000 NA
ENDBRANCH   9  25
BRANCH   9  27
ATOM     27  C   UNL     1       1.259   3.757  -2.455  0.00  0.00    +0.000 C 
ATOM     28  N   UNL     1       0.683   3.516  -3.404  0.00  0.00    +0.000 NA
ENDBRANCH   9  27
TORSDOF 5
ENDMDL
MODEL      430
REMARK  Name = ZINC02047688
REMARK  4 active torsions:
REMARK  status: ('A' for Active; 'I' for Inactive)
REMARK    1  A    between atoms: N_8  and  C_9
REMARK    2  A    between atoms: C_9  and  CA_10
REMARK    3  A    between atoms: CA_10  and  C_11
REMARK    4  A    between atoms: CA_10  and  N_15
REMARK                            x       y       z     vdW  Elec       q    Type
REMARK                         _______ _______ _______ _____ _____    ______ ____
ROOT
ATOM      1  C   UNL     1      -0.020   3.700   0.022  0.00  0.00    +0.000 A 
ATOM      2  C   UNL     1      -1.197   3.037   0.030  0.00  0.00    +0.000 A 
ATOM      3  C   UNL     1      -1.189   1.621   0.017  0.00  0.00    +0.000 A 
ATOM      4  O   UNL     1      -2.237   1.001   0.018  0.00  0.00    +0.000 OA
ATOM      5  N   UNL     1      -0.011   0.966   0.007  0.00  0.00    +0.000 N 
ATOM      6  C   UNL     1       1.147   1.652   0.000  0.00  0.00    +0.000 A 
ATOM      7  O   UNL     1       2.202   1.047  -0.014  0.00  0.00    +0.000 OA
ATOM      8  N   UNL     1       1.154   2.997   0.007  0.00  0.00    +0.000 N 
ATOM      9  I   UNL     1      -3.008   4.089   0.053  0.00  0.00    +0.000 I 
ATOM     10  H   UNL     1       0.003  -0.064   0.006  0.00  0.00    +0.000 HD
ENDROOT
BRANCH   8  11
ATOM     11  C   UNL     1       2.430   3.716  -0.001  0.00  0.00    +0.000 C 
BRANCH  11  12
ATOM     12  CA  UNL     1       2.861   3.974  -1.446  0.00  0.00    +0.000 C 
BRANCH  12  13
ATOM     13  N   UNL     1       2.877   2.695  -2.176  0.00  0.00    +0.000 N 
ATOM     14  H1  UNL     1       1.935   2.278  -2.170  0.00  0.00    +0.000 HD
ATOM     15  H2  UNL     1       3.543   2.047  -1.731  0.00  0.00    +0.000 HD
ATOM     16  H3  UNL     1       3.167   2.863  -3.150  0.00  0.00    +0.000 HD
ENDBRANCH  12  13
BRANCH  12  17
ATOM     17  C   UNL     1       4.231   4.604  -1.457  0.00  0.00    +0.000 C 
ATOM     18  O   UNL     1       5.205   3.926  -1.682  0.00  0.00    +0.000 OA
ATOM     19  OXT UNL     1       4.368   5.917  -1.217  0.00  0.00    +0.000 OA
ENDBRANCH  12  17
ENDBRANCH  11  12
ENDBRANCH   8  11
TORSDOF 4
ENDMDL
MODEL      431
REMARK  Name = ZINC06244515
REMARK  5 active torsions:
REMARK  status: ('A' for Active; 'I' for Inactive)
REMARK    1  A    between atoms: C_1  and  C_2
REMARK    2  A    between atoms: C_2  and  C_3
REMARK    3  A    between atoms: C_4  and  C_11
REMARK    4  A    between atoms: C_5  and  N_10
REMARK    5  A    between atoms: C_15  and  S_17
REMARK                            x       y       z     vdW  Elec       q    Type
REMARK                         _______ _______ _______ _____ _____    ______ ____
ROOT
ATOM      1  C   UNL     1       4.496   2.178   1.100  0.00  0.00    +0.000 A 
ATOM      2  C   UNL     1       3.688   2.139  -0.034  0.00  0.00    +0.000 A 
ATOM      3  C   UNL     1       4.091   2.872  -1.165  0.00  0.00    +0.000 A 
ATOM      4  N   UNL     1       5.223   3.565  -1.111  0.00  0.00    +0.000 NA
ATOM      5  C   UNL     1       5.962   3.568  -0.012  0.00  0.00    +0.000 A 
ATOM      6  N   UNL     1       5.612   2.889   1.071  0.00  0.00    +0.000 N 
ATOM      7  N   UNL     1       7.134   4.303   0.007  0.00  0.00    +0.000 N 
ATOM      8  H   UNL     1       6.218   2.914   1.903  0.00  0.00    +0.000 HD
ATOM      9  H   UNL     1       7.431   4.841  -0.820  0.00  0.00    +0.000 HD
ATOM     10  H   UNL     1       7.715   4.311   0.857  0.00  0.00    +0.000 HD
ENDROOT
BRANCH   2  11
ATOM     11  C   UNL     1       2.433   1.349  -0.047  0.00  0.00    +0.000 A 
ATOM     12  C   UNL     1       2.330   0.211  -0.846  0.00  0.00    +0.000 A 
ATOM     13  C   UNL     1       1.160  -0.519  -0.854  0.00  0.00    +0.000 A 
ATOM     14  C   UNL     1       0.088  -0.124  -0.071  0.00  0.00    +0.000 A 
ATOM     15  C   UNL     1       0.185   1.005   0.724  0.00  0.00    +0.000 A 
ATOM     16  C   UNL     1       1.351   1.743   0.739  0.00  0.00    +0.000 A 
ATOM     17 CL   UNL     1      -1.381  -1.048  -0.086  0.00  0.00    +0.000 Cl
BRANCH  15  18
ATOM     18  S   UNL     1      -1.185   1.505   1.712  0.00  0.00    +0.000 S 
ATOM     19  O   UNL     1      -1.118   0.749   2.912  0.00  0.00    +0.000 OA
ATOM     20  O   UNL     1      -1.193   2.926   1.706  0.00  0.00    +0.000 OA
ATOM     21  O   UNL     1      -2.448   1.061   0.987  0.00  0.00    +0.000 OA
ENDBRANCH  15  18
ENDBRANCH   2  11
BRANCH   3  22
ATOM     22  N   UNL     1       3.321   2.872  -2.315  0.00  0.00    +0.000 N 
ATOM     23  H   UNL     1       2.446   2.329  -2.341  0.00  0.00    +0.000 HD
ATOM     24  H   UNL     1       3.621   3.410  -3.141  0.00  0.00    +0.000 HD
ENDBRANCH   3  22
BRANCH   1  26
ATOM     25  C   UNL     1       4.769   0.036   2.320  0.00  0.00    +0.000 C 
ATOM     26  C   UNL     1       4.108   1.416   2.341  0.00  0.00    +0.000 C 
ENDBRANCH   1  26
TORSDOF 4
ENDMDL
MODEL      432
REMARK  Name = ZINC05663490
REMARK  5 active torsions:
REMARK  status: ('A' for Active; 'I' for Inactive)
REMARK    1  A    between atoms: C_1  and  C_2
REMARK    2  A    between atoms: C_3  and  C_4
REMARK    3  A    between atoms: C_4  and  N_5
REMARK    4  A    between atoms: N_10  and  N_11
REMARK    5  A    between atoms: N_14  and  C_20
REMARK                            x       y       z     vdW  Elec       q    Type
REMARK                         _______ _______ _______ _____ _____    ______ ____
ROOT
ATOM      1  N   UNL     1      -0.016   1.355   0.009  0.00  0.00    +0.000 N 
ATOM      2  C   UNL     1       0.002  -0.004   0.002  0.00  0.00    +0.000 A 
ATOM      3  C   UNL     1       1.331  -0.403  -0.013  0.00  0.00    +0.000 A 
ATOM      4  N   UNL     1       2.079   0.737  -0.014  0.00  0.00    +0.000 NA
ATOM      5  C   UNL     1       1.215   1.798   0.000  0.00  0.00    +0.000 A 
ATOM      6  N   UNL     1       1.586   3.131   0.004  0.00  0.00    +0.000 N 
ATOM      7  N   UNL     1       1.628  -1.748  -0.023  0.00  0.00    +0.000 N 
ATOM      8  C   UNL     1       0.649  -2.669  -0.019  0.00  0.00    +0.000 A 
ATOM      9  O   UNL     1       0.951  -3.847  -0.028  0.00  0.00    +0.000 OA
ATOM     10  N   UNL     1      -0.652  -2.333  -0.005  0.00  0.00    +0.000 N 
ATOM     11  C   UNL     1      -1.033  -1.037   0.006  0.00  0.00    +0.000 A 
ATOM     12  O   UNL     1      -2.213  -0.736   0.019  0.00  0.00    +0.000 OA
ATOM     13  C   UNL     1       3.028  -2.179  -0.038  0.00  0.00    +0.000 C 
ATOM     14  H   UNL     1       0.865   3.866   0.015  0.00  0.00    +0.000 HD
ATOM     15  H   UNL     1      -1.368  -3.073  -0.002  0.00  0.00    +0.000 HD
ENDROOT
BRANCH   6  16
ATOM     16  N   UNL     1       2.943   3.481  -0.007  0.00  0.00    +0.000 N 
ATOM     17  C   UNL     1       3.304   4.780  -0.003  0.00  0.00    +0.000 C 
ATOM     18  O   UNL     1       4.478   5.083  -0.013  0.00  0.00    +0.000 OA
ATOM     19  H   UNL     1       3.664   2.746  -0.018  0.00  0.00    +0.000 HD
ENDBRANCH   6  16
BRANCH   1  20
ATOM     20  C   UNL     1      -1.220   2.189   0.020  0.00  0.00    +0.000 C 
BRANCH  20  23
ATOM     21  C   UNL     1      -2.185   3.983   3.277  0.00  0.00    +0.000 C 
ATOM     22  C   UNL     1      -1.779   3.705   1.853  0.00  0.00    +0.000 C 
ATOM     23  C   UNL     1      -1.626   2.468   1.444  0.00  0.00    +0.000 C 
ATOM     24 CL   UNL     1      -1.513   5.021   0.753  0.00  0.00    +0.000 Cl
ENDBRANCH  20  23
ENDBRANCH   1  20
TORSDOF 3
ENDMDL
MODEL      433
REMARK  Name = ZINC06380358
REMARK  5 active torsions:
REMARK  status: ('A' for Active; 'I' for Inactive)
REMARK    1  A    between atoms: C_1  and  O_2
REMARK    2  A    between atoms: O_2  and  C_3
REMARK    3  A    between atoms: N_8  and  N_9
REMARK    4  A    between atoms: N_9  and  O_10
REMARK    5  A    between atoms: N_9  and  O_11
REMARK                            x       y       z     vdW  Elec       q    Type
REMARK                         _______ _______ _______ _____ _____    ______ ____
ROOT
ATOM      1  C   UNL     1       0.986   3.756  -1.342  0.00  0.00    +0.000 C 
ATOM      2  C   UNL     1      -0.321   3.035  -1.673  0.00  0.00    +0.000 C 
ATOM      3  C   UNL     1      -0.643   1.719  -0.972  0.00  0.00    +0.000 C 
ATOM      4  N   UNL     1      -0.186   1.739  -2.356  0.00  0.00    +0.000 N 
ATOM      5  C   UNL     1       0.143   1.034  -3.506  0.00  0.00    +0.000 C 
ATOM      6  N   UNL     1       0.537   1.671  -4.567  0.00  0.00    +0.000 NA
ATOM      7  N   UNL     1       0.052  -0.351  -3.521  0.00  0.00    +0.000 N 
ATOM      8  C   UNL     1       0.295   1.226   0.124  0.00  0.00    +0.000 C 
ATOM      9  C   UNL     1       1.652   1.900   0.009  0.00  0.00    +0.000 C 
ATOM     10  O   UNL     1       1.473   3.318  -0.073  0.00  0.00    +0.000 OA
ATOM     11  C   UNL     1       2.559   1.565   1.186  0.00  0.00    +0.000 C 
ATOM     12  O   UNL     1       2.876   0.174   1.202  0.00  0.00    +0.000 OA
ATOM     13  C   UNL     1       1.961  -0.646   1.796  0.00  0.00    +0.000 A 
ATOM     14  C   UNL     1       2.265  -1.290   2.983  0.00  0.00    +0.000 A 
ATOM     15  C   UNL     1       1.334  -2.129   3.567  0.00  0.00    +0.000 A 
ATOM     16  C   UNL     1       0.102  -2.325   2.970  0.00  0.00    +0.000 A 
ATOM     17  C   UNL     1      -0.207  -1.682   1.785  0.00  0.00    +0.000 A 
ATOM     18  C   UNL     1       0.723  -0.840   1.198  0.00  0.00    +0.000 A 
ATOM     19  O   UNL     1       0.432  -0.195   0.034  0.00  0.00    +0.000 OA
ATOM     20  H   UNL     1      -0.260  -0.856  -2.679  0.00  0.00    +0.000 HD
ATOM     21  H   UNL     1       0.296  -0.874  -4.374  0.00  0.00    +0.000 HD
ENDROOT
BRANCH   1  23
ATOM     22  C   UNL     1       3.182   4.184  -2.203  0.00  0.00    +0.000 C 
ATOM     23  O   UNL     1       1.957   3.463  -2.349  0.00  0.00    +0.000 OA
ENDBRANCH   1  23
BRANCH   6  24
ATOM     24  N   UNL     1       0.717   0.979  -5.772  0.00  0.00    +0.000 N 
BRANCH  24  25
ATOM     25  O   UNL     1       0.352  -0.386  -5.867  0.00  0.00    +0.000 OA
ATOM     26  H   UNL     1      -0.603  -0.413  -5.608  0.00  0.00    +0.000 HD
ENDBRANCH  24  25
BRANCH  24  27
ATOM     27  O   UNL     1       1.264   1.645  -6.896  0.00  0.00    +0.000 OA
ATOM     28  H   UNL     1       2.135   1.999  -6.584  0.00  0.00    +0.000 HD
ENDBRANCH  24  27
ENDBRANCH   6  24
TORSDOF 4
ENDMDL
MODEL      434
REMARK  Name = ZINC24962321
REMARK  5 active torsions:
REMARK  status: ('A' for Active; 'I' for Inactive)
REMARK    1  A    between atoms: C_1  and  C_2
REMARK    2  A    between atoms: C_2  and  C_3
REMARK    3  A    between atoms: C_2  and  N_18
REMARK    4  A    between atoms: N_8  and  C_9
REMARK    5  A    between atoms: C_12  and  N_15
REMARK                            x       y       z     vdW  Elec       q    Type
REMARK                         _______ _______ _______ _____ _____    ______ ____
ROOT
ATOM      1  C   UNL     1       3.596  -4.732  -0.362  0.00  0.00    +0.000 C 
ATOM      2  O   UNL     1       4.638  -4.113  -0.369  0.00  0.00    +0.000 OA
ATOM      3  N   UNL     1       2.424  -4.077  -0.245  0.00  0.00    +0.000 N 
ATOM      4  C   UNL     1       2.410  -2.734  -0.137  0.00  0.00    +0.000 C 
ATOM      5  O   UNL     1       3.454  -2.113  -0.144  0.00  0.00    +0.000 OA
ATOM      6  N   UNL     1       1.237  -2.080  -0.020  0.00  0.00    +0.000 N 
ATOM      7  H   UNL     1       1.538  -4.604  -0.239  0.00  0.00    +0.000 HD
ATOM      8  H   UNL     1       0.358  -2.609   0.068  0.00  0.00    +0.000 HD
ENDROOT
BRANCH   6   9
ATOM      9  C   UNL     1       1.214  -0.680  -0.020  0.00  0.00    +0.000 A 
ATOM     10  C   UNL     1       2.137   0.031  -0.775  0.00  0.00    +0.000 A 
ATOM     11  C   UNL     1       2.111   1.412  -0.773  0.00  0.00    +0.000 A 
ATOM     12  C   UNL     1       1.168   2.086  -0.019  0.00  0.00    +0.000 A 
ATOM     13  C   UNL     1       0.248   1.381   0.734  0.00  0.00    +0.000 A 
ATOM     14  C   UNL     1       0.268  -0.001   0.736  0.00  0.00    +0.000 A 
BRANCH  12  15
ATOM     15  N   UNL     1       1.143   3.566  -0.019  0.00  0.00    +0.000 N 
ATOM     16  O   UNL     1       1.953   4.189  -0.682  0.00  0.00    +0.000 OA
ATOM     17  O   UNL     1       0.313   4.161   0.644  0.00  0.00    +0.000 OA
ENDBRANCH  12  15
ENDBRANCH   6   9
BRANCH   1  19
ATOM     18  C   UNL     1       2.829  -6.653  -1.729  0.00  0.00    +0.000 C 
ATOM     19  C   UNL     1       3.611  -6.234  -0.483  0.00  0.00    +0.000 C 
BRANCH  19  20
ATOM     20  N   UNL     1       4.995  -6.701  -0.596  0.00  0.00    +0.000 N 
ATOM     21  C   UNL     1       5.732  -6.285  -1.608  0.00  0.00    +0.000 A 
ATOM     22  C   UNL     1       7.043  -6.699  -1.748  0.00  0.00    +0.000 A 
ATOM     23  C   UNL     1       7.582  -7.569  -0.813  0.00  0.00    +0.000 A 
ATOM     24  C   UNL     1       6.776  -7.991   0.239  0.00  0.00    +0.000 A 
ATOM     25  C   UNL     1       5.469  -7.528   0.314  0.00  0.00    +0.000 A 
ATOM     26  O   UNL     1       7.260  -8.844   1.179  0.00  0.00    +0.000 OA
ENDBRANCH  19  20
ENDBRANCH   1  19
TORSDOF 4
ENDMDL
MODEL      435
REMARK  Name = ZINC04314877
REMARK  5 active torsions:
REMARK  status: ('A' for Active; 'I' for Inactive)
REMARK    1  A    between atoms: C_1  and  N_2
REMARK    2  A    between atoms: N_7  and  C_10
REMARK    3  A    between atoms: C_12  and  C_14
REMARK    4  A    between atoms: C_14  and  N_23
REMARK    5  A    between atoms: C_17  and  C_20
REMARK                            x       y       z     vdW  Elec       q    Type
REMARK                         _______ _______ _______ _____ _____    ______ ____
ROOT
ATOM      1  C   UNL     1      -4.149   2.405   2.189  0.00  0.00    +0.000 C 
ATOM      2  N   UNL     1      -2.701   2.195   2.264  0.00  0.00    +0.000 N 
ATOM      3  C   UNL     1      -2.027   2.445   3.449  0.00  0.00    +0.000 A 
ATOM      4  C   UNL     1      -0.654   2.239   3.495  0.00  0.00    +0.000 A 
ATOM      5  C   UNL     1       0.013   1.783   2.338  0.00  0.00    +0.000 A 
ATOM      6  O   UNL     1       1.216   1.596   2.353  0.00  0.00    +0.000 OA
ATOM      7  N   UNL     1      -0.698   1.558   1.213  0.00  0.00    +0.000 N 
ATOM      8  C   UNL     1      -2.026   1.766   1.181  0.00  0.00    +0.000 A 
ATOM      9  O   UNL     1      -2.634   1.557   0.149  0.00  0.00    +0.000 OA
ATOM     10  C   UNL     1      -0.013   1.086   0.008  0.00  0.00    +0.000 C 
ATOM     11  N   UNL     1      -0.258   2.562   4.778  0.00  0.00    +0.000 NA
ATOM     12  C   UNL     1      -1.363   2.942   5.447  0.00  0.00    +0.000 A 
ATOM     13  N   UNL     1      -2.404   2.870   4.657  0.00  0.00    +0.000 NA
ENDROOT
BRANCH  12  14
ATOM     14  C   UNL     1      -1.397   3.381   6.889  0.00  0.00    +0.000 C 
BRANCH  14  20
ATOM     15  C   UNL     1      -2.229   5.467   5.986  0.00  0.00    +0.000 C 
ATOM     16  C   UNL     1      -2.016   6.983   5.981  0.00  0.00    +0.000 C 
ATOM     17  C   UNL     1      -2.280   7.535   7.385  0.00  0.00    +0.000 C 
ATOM     18  C   UNL     1      -1.352   6.837   8.383  0.00  0.00    +0.000 C 
ATOM     19  C   UNL     1      -1.585   5.326   8.318  0.00  0.00    +0.000 C 
ATOM     20  N   UNL     1      -1.290   4.853   6.948  0.00  0.00    +0.000 NA
BRANCH  17  21
ATOM     21  C   UNL     1      -2.014   9.018   7.401  0.00  0.00    +0.000 C 
ATOM     22  O   UNL     1      -1.165   9.473   8.138  0.00  0.00    +0.000 OA
ATOM     23  N   UNL     1      -2.719   9.838   6.597  0.00  0.00    +0.000 N 
ATOM     24  H   UNL     1      -3.440   9.451   5.971  0.00  0.00    +0.000 HD
ATOM     25  H   UNL     1      -2.536  10.852   6.608  0.00  0.00    +0.000 HD
ENDBRANCH  17  21
ENDBRANCH  14  20
ENDBRANCH  12  14
TORSDOF 3
ENDMDL
MODEL      436
REMARK  Name = ZINC04096406
REMARK  9 active torsions:
REMARK  status: ('A' for Active; 'I' for Inactive)
REMARK    1  A    between atoms: C_3  and  O_10
REMARK    2  A    between atoms: C_4  and  O_9
REMARK    3  A    between atoms: C_5  and  C_7
REMARK    4  A    between atoms: C_7  and  O_8
REMARK    5  A    between atoms: C_13  and  O_22
REMARK    6  A    between atoms: C_14  and  C_20
REMARK    7  A    between atoms: C_16  and  C_18
REMARK    8  A    between atoms: C_18  and  O_19
REMARK    9  A    between atoms: C_20  and  O_21
REMARK                            x       y       z     vdW  Elec       q    Type
REMARK                         _______ _______ _______ _____ _____    ______ ____
ROOT
ATOM      1  C   UNL     1      -1.275   3.592   2.463  0.00  0.00    +0.000 C 
ATOM      2  C   UNL     1      -0.445   3.091   3.644  0.00  0.00    +0.000 C 
ATOM      3  C   UNL     1      -0.987   3.684   4.958  0.00  0.00    +0.000 C 
ATOM      4  C   UNL     1      -0.099   4.926   5.199  0.00  0.00    +0.000 C 
ATOM      5  C   UNL     1       0.867   4.937   3.993  0.00  0.00    +0.000 C 
ATOM      6  O   UNL     1       0.908   3.566   3.537  0.00  0.00    +0.000 OA
ATOM      7  O   UNL     1      -0.476   1.671   3.691  0.00  0.00    +0.000 OA
ATOM      8  C   UNL     1      -0.025   1.012   2.518  0.00  0.00    +0.000 C 
ATOM      9  C   UNL     1      -0.594  -0.433   2.562  0.00  0.00    +0.000 C 
ATOM     10  C   UNL     1      -1.900  -0.348   1.747  0.00  0.00    +0.000 C 
ATOM     11  O   UNL     1      -2.044   1.007   1.328  0.00  0.00    +0.000 OA
ATOM     12  C   UNL     1      -0.729   1.579   1.267  0.00  0.00    +0.000 C 
ATOM     13  O   UNL     1      -0.764   2.993   1.269  0.00  0.00    +0.000 OA
ENDROOT
BRANCH   9  14
ATOM     14  O   UNL     1       0.318  -1.349   1.952  0.00  0.00    +0.000 OA
ATOM     15  H   UNL     1       1.180  -1.317   2.437  0.00  0.00    +0.000 HD
ENDBRANCH   9  14
BRANCH   4  16
ATOM     16  O   UNL     1      -0.891   6.115   5.216  0.00  0.00    +0.000 OA
ATOM     17  H   UNL     1      -1.563   6.044   5.939  0.00  0.00    +0.000 HD
ENDBRANCH   4  16
BRANCH   3  18
ATOM     18  O   UNL     1      -0.840   2.748   6.028  0.00  0.00    +0.000 OA
ATOM     19  H   UNL     1       0.119   2.527   6.135  0.00  0.00    +0.000 HD
ENDBRANCH   3  18
BRANCH  10  20
ATOM     20  C   UNL     1      -3.087  -0.752   2.623  0.00  0.00    +0.000 C 
BRANCH  20  21
ATOM     21  O   UNL     1      -4.275  -0.783   1.830  0.00  0.00    +0.000 OA
ATOM     22  H   UNL     1      -4.168  -1.440   1.098  0.00  0.00    +0.000 HD
ENDBRANCH  20  21
ENDBRANCH  10  20
BRANCH   5  23
ATOM     23  C   UNL     1       2.260   5.393   4.431  0.00  0.00    +0.000 C 
BRANCH  23  24
ATOM     24  O   UNL     1       3.126   5.439   3.295  0.00  0.00    +0.000 OA
ATOM     25  H   UNL     1       2.764   6.077   2.629  0.00  0.00    +0.000 HD
ENDBRANCH  23  24
ENDBRANCH   5  23
BRANCH  12  26
ATOM     26  C   UNL     1      -0.013   1.086   0.008  0.00  0.00    +0.000 C 
BRANCH  26  27
ATOM     27  O   UNL     1      -0.704   1.559  -1.150  0.00  0.00    +0.000 OA
ATOM     28  H   UNL     1      -0.718   2.549  -1.145  0.00  0.00    +0.000 HD
ENDBRANCH  26  27
ENDBRANCH  12  26
TORSDOF 9
ENDMDL
MODEL      437
REMARK  Name = ZINC08554408
REMARK  4 active torsions:
REMARK  status: ('A' for Active; 'I' for Inactive)
REMARK    1  A    between atoms: P_4  and  N_6
REMARK    2  A    between atoms: C_7  and  C_9
REMARK    3  A    between atoms: C_9  and  C_10
REMARK    4  A    between atoms: C_10  and  C_11
REMARK                            x       y       z     vdW  Elec       q    Type
REMARK                         _______ _______ _______ _____ _____    ______ ____
ROOT
ATOM      1  C   UNL     1      -0.659   1.524  -1.209  0.00  0.00    +0.000 C 
ATOM      2  C   UNL     1      -0.057   2.877  -1.477  0.00  0.00    +0.000 C 
ATOM      3  O   UNL     1      -0.595   3.735  -2.155  0.00  0.00    +0.000 OA
ATOM      4  O   UNL     1       1.124   3.031  -0.895  0.00  0.00    +0.000 OA
ATOM      5  P   UNL     1       1.663   1.692  -0.005  0.00  0.00    +0.000 P 
ATOM      6  N   UNL     1      -0.012   1.003   0.008  0.00  0.00    +0.000 N 
ATOM      7  O   UNL     1       2.296   0.181  -0.550  0.00  0.00    +0.000 OA
ATOM      8  C   UNL     1       2.226  -0.664   0.618  0.00  0.00    +0.000 C 
ATOM      9  C   UNL     1       2.374   0.186   1.882  0.00  0.00    +0.000 C 
ATOM     10  O   UNL     1       1.763   1.476   1.704  0.00  0.00    +0.000 OA
ATOM     11  H   UNL     1       0.862   0.859  -0.394  0.00  0.00    +0.000 HD
ATOM     12  H   UNL     1       0.036  -0.025  -0.026  0.00  0.00    +0.000 HD
ATOM     13  H   UNL     1      -0.515   1.328   0.845  0.00  0.00    +0.000 HD
ENDROOT
BRANCH   1  14
ATOM     14  C   UNL     1      -2.164   1.662  -0.979  0.00  0.00    +0.000 C 
BRANCH  14  15
ATOM     15  C   UNL     1      -2.776   0.276  -0.763  0.00  0.00    +0.000 C 
BRANCH  15  17
ATOM     16  N   UNL     1      -5.012  -0.686  -0.322  0.00  0.00    +0.000 N 
ATOM     17  C   UNL     1      -4.260   0.412  -0.536  0.00  0.00    +0.000 C 
ATOM     18  O   UNL     1      -4.777   1.509  -0.547  0.00  0.00    +0.000 OA
ATOM     19  H   UNL     1      -4.573  -1.617  -0.313  0.00  0.00    +0.000 HD
BRANCH  16  23
ATOM     20  C   UNL     1      -8.182  -2.102   0.881  0.00  0.00    +0.000 C 
ATOM     21  C   UNL     1      -7.953  -2.515  -0.587  0.00  0.00    +0.000 C 
ATOM     22  O   UNL     1      -7.366  -1.379  -1.253  0.00  0.00    +0.000 OA
ATOM     23  P   UNL     1      -6.627  -0.538  -0.076  0.00  0.00    +0.000 P 
ATOM     24  O   UNL     1      -6.983  -1.386   1.268  0.00  0.00    +0.000 OA
ENDBRANCH  16  23
ENDBRANCH  15  17
ENDBRANCH  14  15
ENDBRANCH   1  14
TORSDOF 4
ENDMDL
MODEL      438
REMARK  Name = ZINC21581828
REMARK  4 active torsions:
REMARK  status: ('A' for Active; 'I' for Inactive)
REMARK    1  A    between atoms: N_9  and  N_13
REMARK    2  A    between atoms: C_14  and  C_16
REMARK    3  A    between atoms: C_16  and  N_17
REMARK    4  A    between atoms: C_20  and  O_23
REMARK                            x       y       z     vdW  Elec       q    Type
REMARK                         _______ _______ _______ _____ _____    ______ ____
ROOT
ATOM      1  N   UNL     1      -1.708   4.166  -1.858  0.00  0.00    +0.000 N 
ATOM      2  C   UNL     1      -1.009   3.469  -0.940  0.00  0.00    +0.000 C 
ATOM      3  O   UNL     1      -0.545   4.035   0.027  0.00  0.00    +0.000 OA
ATOM      4  H   UNL     1      -2.102   3.685  -2.680  0.00  0.00    +0.000 HD
ENDROOT
BRANCH   1  13
ATOM      5  C   UNL     1      -1.844  10.730  -1.883  0.00  0.00    +0.000 C 
ATOM      6  C   UNL     1      -1.191   9.951  -0.740  0.00  0.00    +0.000 C 
ATOM      7  C   UNL     1      -0.635   8.629  -1.276  0.00  0.00    +0.000 C 
ATOM      8  C   UNL     1      -1.766   7.811  -1.890  0.00  0.00    +0.000 C 
ATOM      9  C   UNL     1      -2.443   8.585  -3.016  0.00  0.00    +0.000 C 
ATOM     10  C   UNL     1      -2.992   9.907  -2.472  0.00  0.00    +0.000 C 
ATOM     11  C   UNL     1      -1.242   6.489  -2.401  0.00  0.00    +0.000 C 
ATOM     12  O   UNL     1      -0.408   6.314  -3.264  0.00  0.00    +0.000 OA
ATOM     13  N   UNL     1      -1.898   5.544  -1.696  0.00  0.00    +0.000 N 
ATOM     14  C   UNL     1      -2.757   6.088  -0.824  0.00  0.00    +0.000 C 
ATOM     15  O   UNL     1      -3.466   5.439  -0.080  0.00  0.00    +0.000 OA
ATOM     16  N   UNL     1      -2.745   7.434  -0.863  0.00  0.00    +0.000 NA
ENDBRANCH   1  13
BRANCH   2  17
ATOM     17  C   UNL     1      -0.804   1.986  -1.115  0.00  0.00    +0.000 C 
BRANCH  17  18
ATOM     18  N   UNL     1      -0.018   1.464   0.010  0.00  0.00    +0.000 NA
ATOM     19  C   UNL     1       1.344   2.014   0.000  0.00  0.00    +0.000 C 
ATOM     20  C   UNL     1       2.086   1.565   1.261  0.00  0.00    +0.000 C 
ATOM     21  C   UNL     1       2.133   0.035   1.302  0.00  0.00    +0.000 C 
ATOM     22  C   UNL     1       0.704  -0.513   1.263  0.00  0.00    +0.000 C 
ATOM     23  C   UNL     1       0.002  -0.004   0.002  0.00  0.00    +0.000 C 
BRANCH  21  24
ATOM     24  O   UNL     1       2.775  -0.390   2.506  0.00  0.00    +0.000 OA
ATOM     25  H   UNL     1       2.268  -0.055   3.288  0.00  0.00    +0.000 HD
ENDBRANCH  21  24
ENDBRANCH  17  18
ENDBRANCH   2  17
TORSDOF 4
ENDMDL
MODEL      439
REMARK  Name = ZINC10329109
REMARK  7 active torsions:
REMARK  status: ('A' for Active; 'I' for Inactive)
REMARK    1  A    between atoms: C_1  and  C_2
REMARK    2  A    between atoms: C_2  and  N_3
REMARK    3  A    between atoms: C_12  and  C_20
REMARK    4  A    between atoms: N_14  and  C_15
REMARK    5  A    between atoms: C_15  and  C_16
REMARK    6  A    between atoms: N_18  and  N_19
REMARK    7  A    between atoms: N_21  and  C_24
REMARK                            x       y       z     vdW  Elec       q    Type
REMARK                         _______ _______ _______ _____ _____    ______ ____
ROOT
ATOM      1  N   UNL     1       2.350  -0.011  -0.020  0.00  0.00    +0.000 N 
ATOM      2  C   UNL     1       2.396   1.337  -0.013  0.00  0.00    +0.000 A 
ATOM      3  O   UNL     1       3.469   1.915  -0.020  0.00  0.00    +0.000 OA
ATOM      4  C   UNL     1       1.195   2.070   0.002  0.00  0.00    +0.000 A 
ATOM      5  C   UNL     1      -0.017   1.381   0.010  0.00  0.00    +0.000 A 
ATOM      6  N   UNL     1      -1.000   2.287   0.019  0.00  0.00    +0.000 NA
ATOM      7  C   UNL     1      -0.493   3.492   0.024  0.00  0.00    +0.000 A 
ATOM      8  N   UNL     1       0.873   3.410   0.013  0.00  0.00    +0.000 N 
ATOM      9  C   UNL     1       1.743   4.585   0.017  0.00  0.00    +0.000 C 
ATOM     10  C   UNL     1       0.926   5.818  -0.259  0.00  0.00    +0.000 C 
ATOM     11  N   UNL     1      -0.343   5.849  -0.243  0.00  0.00    +0.000 NA
ATOM     12  N   UNL     1      -1.130   4.718   0.028  0.00  0.00    +0.000 N 
ATOM     13  C   UNL     1       1.661   7.096  -0.572  0.00  0.00    +0.000 C 
ATOM     14  N   UNL     1       0.002  -0.004   0.002  0.00  0.00    +0.000 N 
ATOM     15  C   UNL     1       1.175  -0.664  -0.013  0.00  0.00    +0.000 A 
ATOM     16  O   UNL     1       1.172  -1.880  -0.020  0.00  0.00    +0.000 OA
ATOM     17  C   UNL     1      -1.258  -0.752   0.010  0.00  0.00    +0.000 C 
ENDROOT
BRANCH   1  19
ATOM     18  C   UNL     1       4.022  -1.034  -1.484  0.00  0.00    +0.000 C 
ATOM     19  C   UNL     1       3.600  -0.775  -0.036  0.00  0.00    +0.000 C 
ENDBRANCH   1  19
BRANCH  12  20
ATOM     20  C   UNL     1      -2.564   4.833   0.304  0.00  0.00    +0.000 C 
BRANCH  20  21
ATOM     21  C   UNL     1      -2.778   5.012   1.785  0.00  0.00    +0.000 C 
ATOM     22  O   UNL     1      -1.827   5.041   2.536  0.00  0.00    +0.000 OA
ATOM     23  N   UNL     1      -4.027   5.141   2.274  0.00  0.00    +0.000 N 
ATOM     24  H   UNL     1      -4.836   5.116   1.637  0.00  0.00    +0.000 HD
BRANCH  23  25
ATOM     25  N   UNL     1      -4.221   5.303   3.617  0.00  0.00    +0.000 NA
ATOM     26  H   UNL     1      -3.413   5.327   4.255  0.00  0.00    +0.000 HD
ATOM     27  H   UNL     1      -5.176   5.401   3.991  0.00  0.00    +0.000 HD
ENDBRANCH  23  25
ENDBRANCH  20  21
ENDBRANCH  12  20
TORSDOF 4
ENDMDL
MODEL      440
REMARK  Name = ZINC09915296
REMARK  5 active torsions:
REMARK  status: ('A' for Active; 'I' for Inactive)
REMARK    1  A    between atoms: C_1  and  N_23
REMARK    2  A    between atoms: N_4  and  N_7
REMARK    3  A    between atoms: C_8  and  C_10
REMARK    4  A    between atoms: N_12  and  C_13
REMARK    5  A    between atoms: C_17  and  N_19
REMARK                            x       y       z     vdW  Elec       q    Type
REMARK                         _______ _______ _______ _____ _____    ______ ____
ROOT
ATOM      1  C   UNL     1      -0.014   1.210   0.007  0.00  0.00    +0.000 C 
ATOM      2  O   UNL     1       0.002  -0.004  -0.009  0.00  0.00    +0.000 OA
ATOM      3  N   UNL     1      -1.191   1.868   0.018  0.00  0.00    +0.000 N 
ATOM      4  H   UNL     1      -1.206   2.894   0.103  0.00  0.00    +0.000 HD
ENDROOT
BRANCH   3   5
ATOM      5  C   UNL     1      -2.390   1.157  -0.086  0.00  0.00    +0.000 A 
ATOM      6  C   UNL     1      -3.467   1.706  -0.770  0.00  0.00    +0.000 A 
ATOM      7  C   UNL     1      -4.649   1.000  -0.876  0.00  0.00    +0.000 A 
ATOM      8  C   UNL     1      -4.765  -0.251  -0.291  0.00  0.00    +0.000 A 
ATOM      9  C   UNL     1      -3.694  -0.798   0.396  0.00  0.00    +0.000 A 
ATOM     10  C   UNL     1      -2.508  -0.097   0.499  0.00  0.00    +0.000 A 
ATOM     11  F   UNL     1      -5.923  -0.938  -0.392  0.00  0.00    +0.000 F 
BRANCH   9  12
ATOM     12  N   UNL     1      -3.820  -2.134   1.019  0.00  0.00    +0.000 N 
ATOM     13  O   UNL     1      -2.879  -2.616   1.623  0.00  0.00    +0.000 OA
ATOM     14  O   UNL     1      -4.866  -2.752   0.928  0.00  0.00    +0.000 OA
ENDBRANCH   9  12
ENDBRANCH   3   5
BRANCH   1  16
ATOM     15  N   UNL     1       2.445   1.316  -0.010  0.00  0.00    +0.000 N 
ATOM     16  C   UNL     1       1.269   1.974   0.007  0.00  0.00    +0.000 C 
ATOM     17  O   UNL     1       1.252   3.188   0.023  0.00  0.00    +0.000 OA
ATOM     18  H   UNL     1       2.459   0.287  -0.023  0.00  0.00    +0.000 HD
BRANCH  15  22
ATOM     19  C   UNL     1       7.712   3.058  -0.065  0.00  0.00    +0.000 C 
ATOM     20  C   UNL     1       5.697   2.541   1.174  0.00  0.00    +0.000 C 
ATOM     21  C   UNL     1       4.431   1.681   1.169  0.00  0.00    +0.000 C 
ATOM     22  N   UNL     1       3.619   2.016  -0.009  0.00  0.00    +0.000 NA
ATOM     23  C   UNL     1       4.372   1.780  -1.249  0.00  0.00    +0.000 C 
ATOM     24  C   UNL     1       5.638   2.640  -1.244  0.00  0.00    +0.000 C 
ATOM     25  N   UNL     1       6.456   2.278  -0.067  0.00  0.00    +0.000 N 
ATOM     26  H   UNL     1       6.685   1.275  -0.114  0.00  0.00    +0.000 HD
ENDBRANCH  15  22
ENDBRANCH   1  16
TORSDOF 4
ENDMDL
MODEL      441
REMARK  Name = ZINC21013460
REMARK  4 active torsions:
REMARK  status: ('A' for Active; 'I' for Inactive)
REMARK    1  A    between atoms: C_3  and  S_11
REMARK    2  A    between atoms: C_4  and  N_8
REMARK    3  A    between atoms: S_11  and  N_14
REMARK    4  A    between atoms: C_18  and  N_20
REMARK                            x       y       z     vdW  Elec       q    Type
REMARK                         _______ _______ _______ _____ _____    ______ ____
ROOT
ATOM      1  S   UNL     1      -1.222   4.645  -3.277  0.00  0.00    +0.000 S 
ATOM      2  O   UNL     1      -2.333   5.285  -3.890  0.00  0.00    +0.000 OA
ATOM      3  O   UNL     1      -0.223   5.365  -2.568  0.00  0.00    +0.000 OA
ENDROOT
BRANCH   1   6
ATOM      4  C   UNL     1       0.506   1.697  -5.391  0.00  0.00    +0.000 A 
ATOM      5  C   UNL     1      -0.145   2.399  -4.394  0.00  0.00    +0.000 A 
ATOM      6  C   UNL     1      -0.392   3.750  -4.548  0.00  0.00    +0.000 A 
ATOM      7  C   UNL     1       0.006   4.399  -5.703  0.00  0.00    +0.000 A 
ATOM      8  C   UNL     1       0.661   3.699  -6.698  0.00  0.00    +0.000 A 
ATOM      9  C   UNL     1       0.909   2.347  -6.544  0.00  0.00    +0.000 A 
ATOM     10 CL   UNL     1       1.727   1.466  -7.796  0.00  0.00    +0.000 Cl
BRANCH   7  11
ATOM     11  N   UNL     1      -0.265   5.845  -5.870  0.00  0.00    +0.000 N 
ATOM     12  O   UNL     1      -0.029   6.389  -6.933  0.00  0.00    +0.000 OA
ATOM     13  O   UNL     1      -0.725   6.489  -4.944  0.00  0.00    +0.000 OA
ENDBRANCH   7  11
ENDBRANCH   1   6
BRANCH   1  14
ATOM     14  N   UNL     1      -1.842   3.531  -2.220  0.00  0.00    +0.000 NA
ATOM     15  C   UNL     1      -3.132   2.880  -2.489  0.00  0.00    +0.000 C 
ATOM     16  C   UNL     1      -2.941   1.362  -2.424  0.00  0.00    +0.000 C 
ATOM     17  C   UNL     1      -2.317   0.987  -1.078  0.00  0.00    +0.000 C 
ATOM     18  C   UNL     1      -0.945   1.652  -0.947  0.00  0.00    +0.000 C 
ATOM     19  C   UNL     1      -1.113   3.174  -0.995  0.00  0.00    +0.000 C 
BRANCH  18  20
ATOM     20  N   UNL     1      -0.333   1.267   0.332  0.00  0.00    +0.000 N 
ATOM     21  H   UNL     1      -0.222   0.244   0.365  0.00  0.00    +0.000 HD
ATOM     22  H   UNL     1      -0.938   1.572   1.108  0.00  0.00    +0.000 HD
ATOM     23  H   UNL     1       0.590   1.715   0.420  0.00  0.00    +0.000 HD
ENDBRANCH  18  20
ENDBRANCH   1  14
TORSDOF 4
ENDMDL
MODEL      442
REMARK  Name = ZINC32067408
REMARK  7 active torsions:
REMARK  status: ('A' for Active; 'I' for Inactive)
REMARK    1  A    between atoms: C_2  and  C_21
REMARK    2  A    between atoms: N_6  and  O_20
REMARK    3  A    between atoms: N_10  and  C1*_11
REMARK    4  A    between atoms: C2*_12  and  O2*_19
REMARK    5  A    between atoms: C3*_13  and  O3*_18
REMARK    6  A    between atoms: C4*_14  and  C5*_16
REMARK    7  A    between atoms: C5*_16  and  O5*_17
REMARK                            x       y       z     vdW  Elec       q    Type
REMARK                         _______ _______ _______ _____ _____    ______ ____
ROOT
ATOM      1  C   UNL     1      -1.482   3.284   0.033  0.00  0.00    +0.000 A 
ATOM      2  C   UNL     1      -1.298   1.930   0.019  0.00  0.00    +0.000 A 
ATOM      3  C   UNL     1      -2.640   1.337   0.022  0.00  0.00    +0.000 A 
ATOM      4  C   UNL     1      -3.167  -0.029   0.017  0.00  0.00    +0.000 A 
ATOM      5  N   UNL     1      -2.369  -1.070   0.007  0.00  0.00    +0.000 NA
ATOM      6  N   UNL     1      -4.543  -0.174   0.023  0.00  0.00    +0.000 N 
ATOM      7  C   UNL     1      -5.334   0.931   0.032  0.00  0.00    +0.000 A 
ATOM      8  N   UNL     1      -4.861   2.141   0.037  0.00  0.00    +0.000 NA
ATOM      9  C   UNL     1      -3.541   2.401   0.032  0.00  0.00    +0.000 A 
ATOM     10  N   UNL     1      -2.811   3.558   0.035  0.00  0.00    +0.000 N 
ATOM     11  H   UNL     1      -1.350  -0.916   0.004  0.00  0.00    +0.000 HD
ENDROOT
BRANCH  10  12
ATOM     12  C1* UNL     1      -3.384   4.906   0.045  0.00  0.00    +0.000 C 
ATOM     13  C2* UNL     1      -3.657   5.372   1.498  0.00  0.00    +0.000 C 
ATOM     14  C3* UNL     1      -3.623   6.913   1.355  0.00  0.00    +0.000 C 
ATOM     15  C4* UNL     1      -2.833   7.155   0.054  0.00  0.00    +0.000 C 
ATOM     16  O4* UNL     1      -2.428   5.869  -0.448  0.00  0.00    +0.000 OA
BRANCH  13  17
ATOM     17  O2* UNL     1      -4.941   4.930   1.943  0.00  0.00    +0.000 OA
ATOM     18  H2* UNL     1      -4.971   3.941   1.901  0.00  0.00    +0.000 HD
ENDBRANCH  13  17
BRANCH  14  19
ATOM     19  O3* UNL     1      -4.948   7.435   1.240  0.00  0.00    +0.000 OA
ATOM     20  H3* UNL     1      -5.463   7.189   2.049  0.00  0.00    +0.000 HD
ENDBRANCH  14  19
BRANCH  15  21
ATOM     21  C5* UNL     1      -1.601   8.014   0.345  0.00  0.00    +0.000 C 
BRANCH  21  22
ATOM     22  O5* UNL     1      -0.940   8.330  -0.882  0.00  0.00    +0.000 OA
ATOM     23  H5* UNL     1      -1.558   8.830  -1.472  0.00  0.00    +0.000 HD
ENDBRANCH  21  22
ENDBRANCH  15  21
ENDBRANCH  10  12
BRANCH   2  24
ATOM     24  C   UNL     1      -0.014   1.212   0.009  0.00  0.00    +0.000 C 
ATOM     25  O   UNL     1       0.002  -0.004   0.002  0.00  0.00    +0.000 OA
ATOM     26  N   UNL     1       1.143   1.902   0.001  0.00  0.00    +0.000 N 
ATOM     27  H   UNL     1       1.129   2.932   0.003  0.00  0.00    +0.000 HD
ATOM     28  H   UNL     1       2.042   1.399  -0.006  0.00  0.00    +0.000 HD
ENDBRANCH   2  24
BRANCH   6  29
ATOM     29  O   UNL     1      -5.124  -1.466   0.019  0.00  0.00    +0.000 OA
ATOM     30  H   UNL     1      -4.739  -1.920   0.810  0.00  0.00    +0.000 HD
ENDBRANCH   6  29
TORSDOF 7
ENDMDL
MODEL      443
REMARK  Name = ZINC02809615
REMARK  6 active torsions:
REMARK  status: ('A' for Active; 'I' for Inactive)
REMARK    1  A    between atoms: C_1  and  N_2
REMARK    2  A    between atoms: C_3  and  S_7
REMARK    3  A    between atoms: S_7  and  C_8
REMARK    4  A    between atoms: C_8  and  C_9
REMARK    5  A    between atoms: CA_10  and  C_18
REMARK    6  A    between atoms: CA_13  and  N_20
REMARK                            x       y       z     vdW  Elec       q    Type
REMARK                         _______ _______ _______ _____ _____    ______ ____
ROOT
ATOM      1  C   UNL     1      -0.036   1.675   0.747  0.00  0.00    +0.000 C 
ATOM      2  CA  UNL     1       1.046   1.931   0.026  0.00  0.00    +0.000 C 
ATOM      3  N   UNL     1       1.151   3.125  -0.698  0.00  0.00    +0.000 N 
ATOM      4  C   UNL     1       0.047   4.051  -1.076  0.00  0.00    +0.000 C 
ATOM      5  CA  UNL     1       1.078   5.143  -1.300  0.00  0.00    +0.000 C 
ATOM      6  C   UNL     1       2.032   3.975  -1.211  0.00  0.00    +0.000 C 
ATOM      7  O   UNL     1       3.202   3.855  -1.507  0.00  0.00    +0.000 OA
ATOM      8  S   UNL     1      -0.980   4.240   0.421  0.00  0.00    +0.000 S 
ATOM      9  C   UNL     1      -1.274   2.502   0.877  0.00  0.00    +0.000 C 
ENDROOT
BRANCH   2  10
ATOM     10  C   UNL     1       2.147   0.952  -0.014  0.00  0.00    +0.000 C 
ATOM     11  O   UNL     1       3.300   1.333   0.013  0.00  0.00    +0.000 OA
ATOM     12  OXT UNL     1       1.874  -0.367  -0.081  0.00  0.00    +0.000 OA
ENDBRANCH   2  10
BRANCH   5  13
ATOM     13  N   UNL     1       0.991   5.785  -2.624  0.00  0.00    +0.000 NA
ATOM     14  H1  UNL     1       0.043   6.179  -2.715  0.00  0.00    +0.000 HD
ATOM     15  H2  UNL     1       1.106   5.048  -3.334  0.00  0.00    +0.000 HD
ENDBRANCH   5  13
BRANCH   1  16
ATOM     16  C   UNL     1      -0.018   0.387   1.530  0.00  0.00    +0.000 C 
BRANCH  16  17
ATOM     17  S   UNL     1      -1.019  -0.853   0.673  0.00  0.00    +0.000 S 
BRANCH  17  20
ATOM     18  C   UNL     1      -2.244  -3.915   0.554  0.00  0.00    +0.000 C 
ATOM     19  N   UNL     1      -1.376  -3.445   1.637  0.00  0.00    +0.000 N 
ATOM     20  C   UNL     1      -0.827  -2.215   1.774  0.00  0.00    +0.000 A 
ATOM     21  N   UNL     1      -0.127  -2.227   2.888  0.00  0.00    +0.000 NA
ATOM     22  N   UNL     1      -0.197  -3.379   3.451  0.00  0.00    +0.000 NA
ATOM     23  N   UNL     1      -0.932  -4.175   2.753  0.00  0.00    +0.000 NA
ENDBRANCH  17  20
ENDBRANCH  16  17
ENDBRANCH   1  16
TORSDOF 5
ENDMDL
MODEL      444
REMARK  Name = ZINC31937960
REMARK  8 active torsions:
REMARK  status: ('A' for Active; 'I' for Inactive)
REMARK    1  A    between atoms: N_10  and  C_11
REMARK    2  A    between atoms: C_12  and  O_23
REMARK    3  A    between atoms: C_13  and  O_22
REMARK    4  A    between atoms: C_14  and  N_21
REMARK    5  A    between atoms: C_15  and  C_17
REMARK    6  A    between atoms: C_17  and  C_18
REMARK    7  A    between atoms: C_17  and  O_20
REMARK    8  A    between atoms: C_18  and  O_19
REMARK                            x       y       z     vdW  Elec       q    Type
REMARK                         _______ _______ _______ _____ _____    ______ ____
ROOT
ATOM      1  C   UNL     1      -0.019   1.527   0.010  0.00  0.00    +0.000 C 
ATOM      2  C   UNL     1      -0.123   0.002  -0.071  0.00  0.00    +0.000 C 
ATOM      3  C   UNL     1       0.584  -0.617   1.138  0.00  0.00    +0.000 C 
ATOM      4  C   UNL     1       2.038  -0.135   1.167  0.00  0.00    +0.000 C 
ATOM      5  C   UNL     1       2.059   1.396   1.201  0.00  0.00    +0.000 C 
ATOM      6  O   UNL     1       1.358   1.906   0.065  0.00  0.00    +0.000 OA
ENDROOT
BRANCH   1  16
ATOM      7  C   UNL     1      -4.033   2.838   3.299  0.00  0.00    +0.000 C 
ATOM      8  N   UNL     1      -2.760   2.572   3.215  0.00  0.00    +0.000 NA
ATOM      9  C   UNL     1      -2.181   3.625   2.389  0.00  0.00    +0.000 C 
ATOM     10  C   UNL     1      -3.419   4.346   1.853  0.00  0.00    +0.000 C 
ATOM     11  N   UNL     1      -4.390   3.921   2.597  0.00  0.00    +0.000 NA
ATOM     12  N   UNL     1      -3.304   5.185   0.826  0.00  0.00    +0.000 NA
ATOM     13  C   UNL     1      -2.364   4.883  -0.063  0.00  0.00    +0.000 C 
ATOM     14  N   UNL     1      -1.597   3.804   0.049  0.00  0.00    +0.000 N 
ATOM     15  C   UNL     1      -1.458   3.116   1.169  0.00  0.00    +0.000 C 
ATOM     16  N   UNL     1      -0.704   1.999   1.216  0.00  0.00    +0.000 NA
ATOM     17  H   UNL     1      -1.081   3.485  -0.783  0.00  0.00    +0.000 HD
ENDBRANCH   1  16
BRANCH   4  18
ATOM     18  N   UNL     1       2.736  -0.609  -0.035  0.00  0.00    +0.000 N 
ATOM     19  H   UNL     1       2.268  -0.236  -0.874  0.00  0.00    +0.000 HD
ATOM     20  H   UNL     1       2.717  -1.638  -0.061  0.00  0.00    +0.000 HD
ATOM     21  H   UNL     1       3.714  -0.284  -0.016  0.00  0.00    +0.000 HD
ENDBRANCH   4  18
BRANCH   3  22
ATOM     22  O   UNL     1      -0.078  -0.211   2.338  0.00  0.00    +0.000 OA
ATOM     23  H   UNL     1      -1.019  -0.517   2.315  0.00  0.00    +0.000 HD
ENDBRANCH   3  22
BRANCH   2  24
ATOM     24  O   UNL     1      -1.500  -0.384  -0.068  0.00  0.00    +0.000 OA
ATOM     25  H   UNL     1      -1.958   0.020  -0.847  0.00  0.00    +0.000 HD
ENDBRANCH   2  24
BRANCH   5  26
ATOM     26  C   UNL     1       3.508   1.887   1.170  0.00  0.00    +0.000 C 
BRANCH  26  27
ATOM     27  O   UNL     1       4.174   1.333   0.033  0.00  0.00    +0.000 OA
ATOM     28  H   UNL     1       3.711   1.619  -0.794  0.00  0.00    +0.000 HD
ENDBRANCH  26  27
BRANCH  26  29
ATOM     29  C   UNL     1       3.527   3.414   1.078  0.00  0.00    +0.000 C 
BRANCH  29  30
ATOM     30  O   UNL     1       4.875   3.880   1.166  0.00  0.00    +0.000 OA
ATOM     31  H   UNL     1       5.406   3.498   0.422  0.00  0.00    +0.000 HD
ENDBRANCH  29  30
ENDBRANCH  26  29
ENDBRANCH   5  26
TORSDOF 8
ENDMDL
MODEL      445
REMARK  Name = ZINC32037836
REMARK  4 active torsions:
REMARK  status: ('A' for Active; 'I' for Inactive)
REMARK    1  A    between atoms: N_5  and  C_6
REMARK    2  A    between atoms: C_6  and  C_7
REMARK    3  A    between atoms: C_11  and  P_13
REMARK    4  A    between atoms: P_13  and  O_16
REMARK                            x       y       z     vdW  Elec       q    Type
REMARK                         _______ _______ _______ _____ _____    ______ ____
ROOT
ATOM      1  C   UNL     1      -2.870   0.946  -1.470  0.00  0.00    +0.000 A 
ATOM      2  N   UNL     1      -3.270   0.977  -2.709  0.00  0.00    +0.000 NA
ATOM      3  C   UNL     1      -2.768  -0.096  -3.364  0.00  0.00    +0.000 A 
ATOM      4  C   UNL     1      -2.007  -0.819  -2.454  0.00  0.00    +0.000 A 
ATOM      5  N   UNL     1      -2.080  -0.148  -1.273  0.00  0.00    +0.000 N 
ATOM      6  N   UNL     1      -1.384  -1.966  -2.876  0.00  0.00    +0.000 NA
ATOM      7  C   UNL     1      -1.508  -2.386  -4.162  0.00  0.00    +0.000 A 
ATOM      8  N   UNL     1      -2.218  -1.731  -5.055  0.00  0.00    +0.000 N 
ATOM      9  C   UNL     1      -2.866  -0.599  -4.738  0.00  0.00    +0.000 A 
ATOM     10  O   UNL     1      -3.522  -0.000  -5.576  0.00  0.00    +0.000 OA
ATOM     11  N   UNL     1      -0.869  -3.535  -4.544  0.00  0.00    +0.000 N 
ATOM     12  H   UNL     1      -2.279  -2.094  -6.017  0.00  0.00    +0.000 HD
ATOM     13  H   UNL     1      -0.304  -4.074  -3.872  0.00  0.00    +0.000 HD
ATOM     14  H   UNL     1      -0.956  -3.863  -5.516  0.00  0.00    +0.000 HD
ENDROOT
BRANCH   5  15
ATOM     15  C   UNL     1      -1.433  -0.534  -0.016  0.00  0.00    +0.000 C 
BRANCH  15  16
ATOM     16  C   UNL     1       0.002  -0.004   0.002  0.00  0.00    +0.000 C 
ATOM     17  C   UNL     1       0.718  -0.510   1.257  0.00  0.00    +0.000 C 
ATOM     18  C   UNL     1       2.133   0.073   1.299  0.00  0.00    +0.000 C 
ATOM     19  C   UNL     1       2.046   1.601   1.256  0.00  0.00    +0.000 C 
ATOM     20  C   UNL     1       1.279   2.026   0.001  0.00  0.00    +0.000 C 
ATOM     21  O   UNL     1      -0.017   1.425   0.010  0.00  0.00    +0.000 OA
BRANCH  20  22
ATOM     22  P   UNL     1       1.107   3.841  -0.022  0.00  0.00    +0.000 P 
ATOM     23  O   UNL     1       2.450   4.463  -0.032  0.00  0.00    +0.000 OA
ATOM     24  O   UNL     1       0.300   4.287  -1.341  0.00  0.00    +0.000 OA
BRANCH  22  25
ATOM     25  O   UNL     1       0.303   4.320   1.287  0.00  0.00    +0.000 OA
ATOM     26  H   UNL     1       0.799   4.047   2.099  0.00  0.00    +0.000 HD
ENDBRANCH  22  25
ENDBRANCH  20  22
ENDBRANCH  15  16
ENDBRANCH   5  15
TORSDOF 4
ENDMDL
MODEL      446
REMARK  Name = ZINC26260793
REMARK  3 active torsions:
REMARK  status: ('A' for Active; 'I' for Inactive)
REMARK    1  A    between atoms: C_2  and  S_14
REMARK    2  A    between atoms: C_5  and  C_6
REMARK    3  A    between atoms: S_14  and  N_17
REMARK                            x       y       z     vdW  Elec       q    Type
REMARK                         _______ _______ _______ _____ _____    ______ ____
ROOT
ATOM      1  C   UNL     1       0.636   3.205   0.013  0.00  0.00    +0.000 A 
ATOM      2  C   UNL     1       1.079   1.879   0.002  0.00  0.00    +0.000 A 
ATOM      3  C   UNL     1      -0.013   1.076   0.008  0.00  0.00    +0.000 A 
ATOM      4  N   UNL     1      -1.126   1.849   0.017  0.00  0.00    +0.000 N 
ATOM      5  C   UNL     1      -0.743   3.171   0.026  0.00  0.00    +0.000 A 
ATOM      6  H   UNL     1      -2.096   1.505   0.017  0.00  0.00    +0.000 HD
ENDROOT
BRANCH   5   7
ATOM      7  C   UNL     1      -1.638   4.333   0.040  0.00  0.00    +0.000 C 
ATOM      8  O   UNL     1      -1.175   5.458   0.041  0.00  0.00    +0.000 OA
ATOM      9  N   UNL     1      -2.974   4.154   0.052  0.00  0.00    +0.000 N 
ATOM     10  C   UNL     1      -3.821   5.254   0.066  0.00  0.00    +0.000 A 
ATOM     11  N   UNL     1      -3.447   6.566   0.074  0.00  0.00    +0.000 N 
ATOM     12  C   UNL     1      -4.610   7.283   0.082  0.00  0.00    +0.000 A 
ATOM     13  N   UNL     1      -5.593   6.427   0.079  0.00  0.00    +0.000 NA
ATOM     14  N   UNL     1      -5.133   5.227   0.073  0.00  0.00    +0.000 NA
ATOM     15  H   UNL     1      -3.366   3.201   0.051  0.00  0.00    +0.000 HD
ATOM     16  H   UNL     1      -2.487   6.938   0.073  0.00  0.00    +0.000 HD
ENDBRANCH   5   7
BRANCH   2  17
ATOM     17  S   UNL     1       2.758   1.346  -0.016  0.00  0.00    +0.000 S 
ATOM     18  O   UNL     1       3.527   2.407   0.533  0.00  0.00    +0.000 OA
ATOM     19  O   UNL     1       2.774   0.033   0.528  0.00  0.00    +0.000 OA
BRANCH  17  20
ATOM     20  N   UNL     1       3.210   1.206  -1.603  0.00  0.00    +0.000 NA
ATOM     21  C   UNL     1       3.042  -0.062  -2.330  0.00  0.00    +0.000 C 
ATOM     22  C   UNL     1       2.314   0.236  -3.651  0.00  0.00    +0.000 C 
ATOM     23  O   UNL     1       3.008   1.277  -4.344  0.00  0.00    +0.000 OA
ATOM     24  C   UNL     1       3.039   2.524  -3.646  0.00  0.00    +0.000 C 
ATOM     25  C   UNL     1       3.799   2.345  -2.326  0.00  0.00    +0.000 C 
ENDBRANCH  17  20
ENDBRANCH   2  17
TORSDOF 3
ENDMDL
MODEL      447
REMARK  Name = ZINC17376865
REMARK  6 active torsions:
REMARK  status: ('A' for Active; 'I' for Inactive)
REMARK    1  A    between atoms: C_1  and  C_2
REMARK    2  A    between atoms: N_11  and  C1*_15
REMARK    3  A    between atoms: C2*_16  and  O2*_23
REMARK    4  A    between atoms: C3*_17  and  O3*_22
REMARK    5  A    between atoms: C4*_18  and  C5*_20
REMARK    6  A    between atoms: C5*_20  and  O5*_21
REMARK                            x       y       z     vdW  Elec       q    Type
REMARK                         _______ _______ _______ _____ _____    ______ ____
ROOT
ATOM      1  C   UNL     1      -4.952   5.791   0.076  0.00  0.00    +0.000 C 
ATOM      2  C   UNL     1      -3.446   5.750   0.063  0.00  0.00    +0.000 C 
ATOM      3  O   UNL     1      -2.811   6.783   0.062  0.00  0.00    +0.000 OA
ATOM      4  N   UNL     1      -2.804   4.565   0.051  0.00  0.00    +0.000 N 
ATOM      5  C   UNL     1      -1.413   4.527   0.038  0.00  0.00    +0.000 A 
ATOM      6  C   UNL     1      -0.735   3.310   0.026  0.00  0.00    +0.000 A 
ATOM      7  C   UNL     1       0.662   3.324   0.013  0.00  0.00    +0.000 A 
ATOM      8  N   UNL     1       1.294   4.492   0.013  0.00  0.00    +0.000 NA
ATOM      9  C   UNL     1       0.616   5.622   0.025  0.00  0.00    +0.000 A 
ATOM     10  N   UNL     1      -0.702   5.652   0.038  0.00  0.00    +0.000 NA
ATOM     11  N   UNL     1       1.075   2.004   0.003  0.00  0.00    +0.000 N 
ATOM     12  C   UNL     1      -0.014   1.213   0.009  0.00  0.00    +0.000 A 
ATOM     13  O   UNL     1       0.002  -0.004   0.002  0.00  0.00    +0.000 OA
ATOM     14  N   UNL     1      -1.126   1.974   0.018  0.00  0.00    +0.000 N 
ATOM     15  H   UNL     1      -3.344   3.687   0.052  0.00  0.00    +0.000 HD
ATOM     16  H   UNL     1      -2.096   1.629   0.018  0.00  0.00    +0.000 HD
ENDROOT
BRANCH  11  17
ATOM     17  C1* UNL     1       2.466   1.544  -0.013  0.00  0.00    +0.000 C 
ATOM     18  C2* UNL     1       2.786   0.754   1.275  0.00  0.00    +0.000 C 
ATOM     19  C3* UNL     1       3.722  -0.381   0.796  0.00  0.00    +0.000 C 
ATOM     20  C4* UNL     1       3.858  -0.138  -0.724  0.00  0.00    +0.000 C 
ATOM     21  O4* UNL     1       2.671   0.600  -1.087  0.00  0.00    +0.000 OA
BRANCH  19  22
ATOM     22  O3* UNL     1       4.996  -0.283   1.435  0.00  0.00    +0.000 OA
ATOM     23  H3* UNL     1       4.872  -0.349   2.415  0.00  0.00    +0.000 HD
ENDBRANCH  19  22
BRANCH  18  24
ATOM     24  O2* UNL     1       1.590   0.211   1.839  0.00  0.00    +0.000 OA
ATOM     25  H2* UNL     1       1.166  -0.392   1.179  0.00  0.00    +0.000 HD
ENDBRANCH  18  24
BRANCH  20  26
ATOM     26  C5* UNL     1       3.908  -1.470  -1.476  0.00  0.00    +0.000 C 
BRANCH  26  27
ATOM     27  O5* UNL     1       4.078  -1.222  -2.873  0.00  0.00    +0.000 OA
ATOM     28  H5* UNL     1       4.923  -0.729  -3.021  0.00  0.00    +0.000 HD
ENDBRANCH  26  27
ENDBRANCH  20  26
ENDBRANCH  11  17
TORSDOF 5
ENDMDL
MODEL      448
REMARK  Name = ZINC00056328
REMARK  1 active torsions:
REMARK  status: ('A' for Active; 'I' for Inactive)
REMARK    1  A    between atoms: N_13  and  N_17
REMARK                            x       y       z     vdW  Elec       q    Type
REMARK                         _______ _______ _______ _____ _____    ______ ____
ROOT
ATOM      1  C   UNL     1      -2.841   0.232  -6.148  0.00  0.00    +0.000 C 
ATOM      2  C   UNL     1      -3.720   0.752  -7.288  0.00  0.00    +0.000 C 
ATOM      3  O   UNL     1      -3.753   2.181  -7.245  0.00  0.00    +0.000 OA
ATOM      4  C   UNL     1      -4.251   2.708  -6.013  0.00  0.00    +0.000 C 
ATOM      5  C   UNL     1      -3.377   2.209  -4.860  0.00  0.00    +0.000 C 
ATOM      6  N   UNL     1      -3.357   0.739  -4.868  0.00  0.00    +0.000 N 
ATOM      7  C   UNL     1      -2.621   0.248  -3.809  0.00  0.00    +0.000 A 
ATOM      8  N   UNL     1      -2.486  -1.064  -3.645  0.00  0.00    +0.000 NA
ATOM      9  C   UNL     1      -1.777  -1.536  -2.625  0.00  0.00    +0.000 A 
ATOM     10  N   UNL     1      -1.203  -0.696  -1.769  0.00  0.00    +0.000 NA
ATOM     11  C   UNL     1      -1.339   0.615  -1.933  0.00  0.00    +0.000 A 
ATOM     12  N   UNL     1      -2.052   1.087  -2.949  0.00  0.00    +0.000 NA
ATOM     13  N   UNL     1      -0.741   1.490  -1.041  0.00  0.00    +0.000 N 
ATOM     14  C   UNL     1      -0.878   2.821  -1.207  0.00  0.00    +0.000 C 
ATOM     15  O   UNL     1      -1.527   3.253  -2.140  0.00  0.00    +0.000 OA
ATOM     16  N   UNL     1      -0.296   3.672  -0.339  0.00  0.00    +0.000 N 
ATOM     17  N   UNL     1      -1.636  -2.899  -2.454  0.00  0.00    +0.000 N 
ATOM     18  C   UNL     1      -2.948  -3.556  -2.361  0.00  0.00    +0.000 C 
ATOM     19  C   UNL     1      -2.747  -5.068  -2.232  0.00  0.00    +0.000 C 
ATOM     20  O   UNL     1      -1.923  -5.340  -1.095  0.00  0.00    +0.000 OA
ATOM     21  C   UNL     1      -0.638  -4.715  -1.152  0.00  0.00    +0.000 C 
ATOM     22  C   UNL     1      -0.818  -3.199  -1.270  0.00  0.00    +0.000 C 
ATOM     23  H   UNL     1       0.253   3.306   0.451  0.00  0.00    +0.000 HD
ATOM     24  H   UNL     1      -0.401   4.689  -0.466  0.00  0.00    +0.000 HD
ENDROOT
BRANCH  13  25
ATOM     25  N   UNL     1      -0.012   1.005   0.008  0.00  0.00    +0.000 NA
ATOM     26  H   UNL     1       0.093  -0.012   0.135  0.00  0.00    +0.000 HD
ATOM     27  H   UNL     1       0.433   1.655   0.671  0.00  0.00    +0.000 HD
ENDBRANCH  13  25
TORSDOF 1
ENDMDL
MODEL      449
REMARK  Name = ZINC31905856
REMARK  7 active torsions:
REMARK  status: ('A' for Active; 'I' for Inactive)
REMARK    1  A    between atoms: C_6  and  N_7
REMARK    2  A    between atoms: N_7  and  C_8
REMARK    3  A    between atoms: C_8  and  C_9
REMARK    4  A    between atoms: C_9  and  O_18
REMARK    5  A    between atoms: C_10  and  O_17
REMARK    6  A    between atoms: C_11  and  O_16
REMARK    7  A    between atoms: C_12  and  O_15
REMARK                            x       y       z     vdW  Elec       q    Type
REMARK                         _______ _______ _______ _____ _____    ______ ____
ROOT
ATOM      1  C   UNL     1       2.181   1.065   1.206  0.00  0.00    +0.000 C 
ENDROOT
BRANCH   1   2
ATOM      2  C   UNL     1       1.423   1.617  -0.003  0.00  0.00    +0.000 C 
ATOM      3  C   UNL     1      -0.013   1.086   0.008  0.00  0.00    +0.000 C 
ATOM      4  C   UNL     1      -0.747   1.595  -1.237  0.00  0.00    +0.000 C 
ATOM      5  C   UNL     1       0.025   1.158  -2.485  0.00  0.00    +0.000 C 
ATOM      6  C   UNL     1       1.460   1.686  -2.400  0.00  0.00    +0.000 C 
ATOM      7  O   UNL     1       2.075   1.201  -1.205  0.00  0.00    +0.000 OA
BRANCH   5   8
ATOM      8  O   UNL     1      -0.610   1.687  -3.651  0.00  0.00    +0.000 OA
ATOM      9  H   UNL     1      -0.622   2.676  -3.600  0.00  0.00    +0.000 HD
ENDBRANCH   5   8
BRANCH   4  10
ATOM     10  O   UNL     1      -2.065   1.044  -1.273  0.00  0.00    +0.000 OA
ATOM     11  H   UNL     1      -2.561   1.321  -0.462  0.00  0.00    +0.000 HD
ENDBRANCH   4  10
BRANCH   3  12
ATOM     12  O   UNL     1      -0.684   1.548   1.182  0.00  0.00    +0.000 OA
ATOM     13  H   UNL     1      -0.699   2.538   1.186  0.00  0.00    +0.000 HD
ENDBRANCH   3  12
BRANCH   2  14
ATOM     14  O   UNL     1       1.403   3.045   0.059  0.00  0.00    +0.000 OA
ATOM     15  H   UNL     1       2.332   3.389   0.051  0.00  0.00    +0.000 HD
ENDBRANCH   2  14
ENDBRANCH   1   2
BRANCH   1  16
ATOM     16  N   UNL     1       3.554   1.573   1.196  0.00  0.00    +0.000 N 
ATOM     17  H   UNL     1       3.865   2.203   0.442  0.00  0.00    +0.000 HD
BRANCH  16  23
ATOM     18  C   UNL     1       4.020   0.356   3.230  0.00  0.00    +0.000 A 
ATOM     19  C   UNL     1       4.885  -0.023   4.234  0.00  0.00    +0.000 A 
ATOM     20  C   UNL     1       6.189   0.452   4.235  0.00  0.00    +0.000 A 
ATOM     21  C   UNL     1       6.621   1.312   3.209  0.00  0.00    +0.000 A 
ATOM     22  C   UNL     1       5.743   1.686   2.196  0.00  0.00    +0.000 A 
ATOM     23  C   UNL     1       4.445   1.203   2.209  0.00  0.00    +0.000 A 
ATOM     24  C   UNL     1       8.014   1.791   3.251  0.00  0.00    +0.000 A 
ATOM     25  O   UNL     1       8.447   2.538   2.391  0.00  0.00    +0.000 OA
ATOM     26  N   UNL     1       8.795   1.379   4.268  0.00  0.00    +0.000 NA
ATOM     27  C   UNL     1       8.348   0.580   5.197  0.00  0.00    +0.000 A 
ATOM     28  N   UNL     1       7.092   0.103   5.223  0.00  0.00    +0.000 N 
ATOM     29  H   UNL     1       6.800  -0.525   5.984  0.00  0.00    +0.000 HD
ENDBRANCH  16  23
ENDBRANCH   1  16
TORSDOF 7
ENDMDL
MODEL      450
REMARK  Name = ZINC07365436
REMARK  4 active torsions:
REMARK  status: ('A' for Active; 'I' for Inactive)
REMARK    1  A    between atoms: C_3  and  N_13
REMARK    2  A    between atoms: C_4  and  N_10
REMARK    3  A    between atoms: C_6  and  C_7
REMARK    4  A    between atoms: N_16  and  C_19
REMARK                            x       y       z     vdW  Elec       q    Type
REMARK                         _______ _______ _______ _____ _____    ______ ____
ROOT
ATOM      1  C   UNL     1       7.519   6.998   0.048  0.00  0.00    +0.000 A 
ATOM      2  C   UNL     1       6.352   6.269   0.057  0.00  0.00    +0.000 A 
ATOM      3  C   UNL     1       5.394   6.497   1.041  0.00  0.00    +0.000 A 
ATOM      4  C   UNL     1       5.611   7.468   2.016  0.00  0.00    +0.000 A 
ATOM      5  C   UNL     1       6.779   8.196   2.016  0.00  0.00    +0.000 A 
ATOM      6  C   UNL     1       7.742   7.969   1.028  0.00  0.00    +0.000 A 
ENDROOT
BRANCH   3   7
ATOM      7  N   UNL     1       4.216   5.760   1.047  0.00  0.00    +0.000 N 
ATOM      8  C   UNL     1       3.414   6.039  -0.153  0.00  0.00    +0.000 C 
ATOM      9  C   UNL     1       2.093   5.270  -0.070  0.00  0.00    +0.000 C 
ATOM     10  N   UNL     1       2.372   3.833   0.051  0.00  0.00    +0.000 N 
ATOM     11  C   UNL     1       3.174   3.554   1.250  0.00  0.00    +0.000 C 
ATOM     12  C   UNL     1       4.495   4.322   1.167  0.00  0.00    +0.000 C 
BRANCH  10  13
ATOM     13  C   UNL     1       1.192   3.094   0.057  0.00  0.00    +0.000 A 
ATOM     14  C   UNL     1       1.219   1.704   0.163  0.00  0.00    +0.000 A 
ATOM     15  C   UNL     1       0.028   1.009   0.164  0.00  0.00    +0.000 A 
ATOM     16  C   UNL     1      -1.193   2.957  -0.035  0.00  0.00    +0.000 A 
ATOM     17  C   UNL     1      -0.047   3.725  -0.044  0.00  0.00    +0.000 A 
ATOM     18  N   UNL     1      -1.194   1.600   0.062  0.00  0.00    +0.000 N 
ATOM     19  H   UNL     1      -2.066   1.052   0.058  0.00  0.00    +0.000 HD
ENDBRANCH  10  13
ENDBRANCH   3   7
BRANCH   6  20
ATOM     20  C   UNL     1       8.992   8.752   1.022  0.00  0.00    +0.000 C 
ATOM     21  O   UNL     1       9.185   9.596   1.876  0.00  0.00    +0.000 OA
ATOM     22  N   UNL     1       9.921   8.532   0.070  0.00  0.00    +0.000 N 
ATOM     23  H   UNL     1       9.757   7.817  -0.653  0.00  0.00    +0.000 HD
ATOM     24  H   UNL     1      10.794   9.079   0.066  0.00  0.00    +0.000 HD
ENDBRANCH   6  20
BRANCH   4  25
ATOM     25  N   UNL     1       4.588   7.712   3.057  0.00  0.00    +0.000 N 
ATOM     26  O   UNL     1       4.734   8.622   3.853  0.00  0.00    +0.000 OA
ATOM     27  O   UNL     1       3.599   7.002   3.118  0.00  0.00    +0.000 OA
ENDBRANCH   4  25
TORSDOF 4
ENDMDL
MODEL      451
REMARK  Name = ZINC31349908
REMARK  9 active torsions:
REMARK  status: ('A' for Active; 'I' for Inactive)
REMARK    1  A    between atoms: C_4  and  N_20
REMARK    2  A    between atoms: C_6  and  C_12
REMARK    3  A    between atoms: C_12  and  N_13
REMARK    4  A    between atoms: N_13  and  C_14
REMARK    5  A    between atoms: N_13  and  C_17
REMARK    6  A    between atoms: C_14  and  C_15
REMARK    7  A    between atoms: C_15  and  O_16
REMARK    8  A    between atoms: C_17  and  C_18
REMARK    9  A    between atoms: C_18  and  O_19
REMARK                            x       y       z     vdW  Elec       q    Type
REMARK                         _______ _______ _______ _____ _____    ______ ____
ROOT
ATOM      1  C   UNL     1      -3.967   3.005   7.264  0.00  0.00    +0.000 A 
ATOM      2  C   UNL     1      -2.947   3.759   6.756  0.00  0.00    +0.000 A 
ATOM      3  C   UNL     1      -2.173   3.213   5.715  0.00  0.00    +0.000 A 
ATOM      4  C   UNL     1      -1.109   3.930   5.143  0.00  0.00    +0.000 A 
ATOM      5  C   UNL     1      -0.382   3.370   4.137  0.00  0.00    +0.000 A 
ATOM      6  C   UNL     1      -0.677   2.094   3.665  0.00  0.00    +0.000 A 
ATOM      7  C   UNL     1      -1.707   1.369   4.193  0.00  0.00    +0.000 A 
ATOM      8  C   UNL     1      -2.479   1.915   5.240  0.00  0.00    +0.000 A 
ATOM      9  N   UNL     1      -3.491   1.230   5.780  0.00  0.00    +0.000 NA
ATOM     10  C   UNL     1      -4.215   1.734   6.750  0.00  0.00    +0.000 A 
ATOM     11  O   UNL     1      -1.984   0.128   3.716  0.00  0.00    +0.000 OA
ENDROOT
BRANCH   4  12
ATOM     12  N   UNL     1      -0.779   5.288   5.632  0.00  0.00    +0.000 N 
ATOM     13  O   UNL     1      -0.454   6.157   4.842  0.00  0.00    +0.000 OA
ATOM     14  O   UNL     1      -0.833   5.536   6.823  0.00  0.00    +0.000 OA
ENDBRANCH   4  12
BRANCH   6  15
ATOM     15  C   UNL     1       0.149   1.505   2.550  0.00  0.00    +0.000 C 
BRANCH  15  16
ATOM     16  N   UNL     1      -0.620   1.542   1.299  0.00  0.00    +0.000 N 
ATOM     17  H   UNL     1      -1.581   1.238   1.510  0.00  0.00    +0.000 HD
BRANCH  16  18
ATOM     18  C   UNL     1      -0.686   2.907   0.762  0.00  0.00    +0.000 C 
BRANCH  18  19
ATOM     19  C   UNL     1      -1.691   2.953  -0.391  0.00  0.00    +0.000 C 
BRANCH  19  20
ATOM     20  O   UNL     1      -3.002   2.679   0.108  0.00  0.00    +0.000 OA
ATOM     21  H   UNL     1      -3.246   3.359   0.786  0.00  0.00    +0.000 HD
ENDBRANCH  19  20
ENDBRANCH  18  19
ENDBRANCH  16  18
BRANCH  16  22
ATOM     22  C   UNL     1      -0.059   0.613   0.309  0.00  0.00    +0.000 C 
BRANCH  22  23
ATOM     23  C   UNL     1      -0.373  -0.826   0.725  0.00  0.00    +0.000 C 
BRANCH  23  24
ATOM     24  O   UNL     1      -1.788  -1.030   0.700  0.00  0.00    +0.000 OA
ATOM     25  H   UNL     1      -2.129  -0.870  -0.215  0.00  0.00    +0.000 HD
ENDBRANCH  23  24
ENDBRANCH  22  23
ENDBRANCH  16  22
ENDBRANCH  15  16
ENDBRANCH   6  15
TORSDOF 9
ENDMDL
MODEL      452
REMARK  Name = ZINC04802570
REMARK  12 active torsions:
REMARK  status: ('A' for Active; 'I' for Inactive)
REMARK    1  A    between atoms: C_1  and  C_2
REMARK    2  A    between atoms: C_2  and  C_19
REMARK    3  A    between atoms: C_5  and  C_12
REMARK    4  A    between atoms: C_7  and  O_10
REMARK    5  A    between atoms: O_10  and  C_11
REMARK    6  A    between atoms: C_12  and  N_20
REMARK    7  A    between atoms: C_13  and  C_14
REMARK    8  A    between atoms: C_13  and  N_20
REMARK    9  A    between atoms: C_14  and  O_15
REMARK   10  A    between atoms: C_16  and  C_17
REMARK   11  A    between atoms: C_16  and  N_20
REMARK   12  A    between atoms: C_17  and  O_18
REMARK                            x       y       z     vdW  Elec       q    Type
REMARK                         _______ _______ _______ _____ _____    ______ ____
ROOT
ATOM      1  C   UNL     1      -0.909   0.015   1.415  0.00  0.00    +0.000 C 
ATOM      2  C   UNL     1      -0.004   0.275   0.209  0.00  0.00    +0.000 C 
ATOM      3  O   UNL     1       1.332  -0.258   0.468  0.00  0.00    +0.000 OA
ATOM      4  C   UNL     1       1.996   0.868   0.981  0.00  0.00    +0.000 C 
ATOM      5  C   UNL     1       3.473   1.145   0.940  0.00  0.00    +0.000 C 
ATOM      6  O   UNL     1       3.594   2.571   0.687  0.00  0.00    +0.000 OA
ATOM      7  C   UNL     1       2.270   3.122   0.425  0.00  0.00    +0.000 C 
ATOM      8  C   UNL     1       1.504   1.926  -0.088  0.00  0.00    +0.000 C 
ATOM      9  O   UNL     1       0.125   1.710  -0.011  0.00  0.00    +0.000 OA
ATOM     10  C   UNL     1      -0.596  -0.389  -1.036  0.00  0.00    +0.000 C 
ENDROOT
BRANCH   7  11
ATOM     11  O   UNL     1       1.682   3.622   1.627  0.00  0.00    +0.000 OA
ATOM     12  C   UNL     1       2.208   4.881   2.052  0.00  0.00    +0.000 C 
ENDBRANCH   7  11
BRANCH   5  13
ATOM     13  C   UNL     1       4.115   0.789   2.283  0.00  0.00    +0.000 C 
BRANCH  13  14
ATOM     14  N   UNL     1       5.583   0.908   2.151  0.00  0.00    +0.000 N 
ATOM     15  H   UNL     1       5.869   0.528   1.238  0.00  0.00    +0.000 HD
BRANCH  14  16
ATOM     16  C   UNL     1       5.984   2.329   2.227  0.00  0.00    +0.000 C 
BRANCH  16  17
ATOM     17  C   UNL     1       7.419   2.462   1.714  0.00  0.00    +0.000 C 
BRANCH  17  18
ATOM     18  O   UNL     1       7.466   2.104   0.332  0.00  0.00    +0.000 OA
ATOM     19  H   UNL     1       6.874   2.705  -0.186  0.00  0.00    +0.000 HD
ENDBRANCH  17  18
ENDBRANCH  16  17
ENDBRANCH  14  16
BRANCH  14  20
ATOM     20  C   UNL     1       6.250   0.138   3.222  0.00  0.00    +0.000 C 
BRANCH  20  21
ATOM     21  C   UNL     1       6.215  -1.347   2.851  0.00  0.00    +0.000 C 
BRANCH  21  22
ATOM     22  O   UNL     1       6.998  -1.562   1.675  0.00  0.00    +0.000 OA
ATOM     23  H   UNL     1       7.934  -1.287   1.845  0.00  0.00    +0.000 HD
ENDBRANCH  21  22
ENDBRANCH  20  21
ENDBRANCH  14  20
ENDBRANCH  13  14
ENDBRANCH   5  13
TORSDOF 9
ENDMDL
MODEL      453
REMARK  Name = ZINC19680304
REMARK  9 active torsions:
REMARK  status: ('A' for Active; 'I' for Inactive)
REMARK    1  A    between atoms: C_1  and  C_2
REMARK    2  A    between atoms: C_2  and  C_3
REMARK    3  A    between atoms: C_3  and  C_4
REMARK    4  A    between atoms: C_4  and  S_5
REMARK    5  A    between atoms: S_5  and  N_8
REMARK    6  A    between atoms: N_11  and  S_14
REMARK    7  A    between atoms: S_14  and  C_17
REMARK    8  A    between atoms: C_17  and  C_18
REMARK    9  A    between atoms: C_18  and  N_19
REMARK                            x       y       z     vdW  Elec       q    Type
REMARK                         _______ _______ _______ _____ _____    ______ ____
ROOT
ATOM      1  N   UNL     1       1.367   2.018  -0.000  0.00  0.00    +0.000 NA
ATOM      2  C   UNL     1      -0.019   1.530   0.011  0.00  0.00    +0.000 C 
ATOM      3  C   UNL     1       0.002  -0.004   0.002  0.00  0.00    +0.000 C 
ATOM      4  N   UNL     1       0.924  -0.467   1.048  0.00  0.00    +0.000 NA
ATOM      5  C   UNL     1       2.310   0.021   1.038  0.00  0.00    +0.000 C 
ATOM      6  C   UNL     1       2.289   1.555   1.046  0.00  0.00    +0.000 C 
ENDROOT
BRANCH   4   7
ATOM      7  S   UNL     1       0.411  -1.520   2.219  0.00  0.00    +0.000 S 
ATOM      8  O   UNL     1       1.263  -1.273   3.329  0.00  0.00    +0.000 OA
ATOM      9  O   UNL     1      -0.989  -1.297   2.318  0.00  0.00    +0.000 OA
BRANCH   7  10
ATOM     10  C   UNL     1       0.735  -3.169   1.537  0.00  0.00    +0.000 C 
BRANCH  10  11
ATOM     11  C   UNL     1       0.294  -4.233   2.545  0.00  0.00    +0.000 C 
BRANCH  11  12
ATOM     12  N   UNL     1       0.556  -5.569   1.993  0.00  0.00    +0.000 N 
ATOM     13  H   UNL     1       1.564  -5.672   1.804  0.00  0.00    +0.000 HD
ATOM     14  H   UNL     1       0.030  -5.689   1.116  0.00  0.00    +0.000 HD
ATOM     15  H   UNL     1       0.260  -6.285   2.670  0.00  0.00    +0.000 HD
ENDBRANCH  11  12
ENDBRANCH  10  11
ENDBRANCH   7  10
ENDBRANCH   4   7
BRANCH   1  16
ATOM     16  S   UNL     1       1.881   3.071  -1.171  0.00  0.00    +0.000 S 
ATOM     17  O   UNL     1       3.281   2.849  -1.269  0.00  0.00    +0.000 OA
ATOM     18  O   UNL     1       1.028   2.823  -2.280  0.00  0.00    +0.000 OA
BRANCH  16  19
ATOM     19  C   UNL     1       1.556   4.720  -0.489  0.00  0.00    +0.000 C 
BRANCH  19  20
ATOM     20  C   UNL     1       1.997   5.784  -1.497  0.00  0.00    +0.000 C 
BRANCH  20  22
ATOM     21  C   UNL     1       2.163   8.239  -1.929  0.00  0.00    +0.000 C 
ATOM     22  C   UNL     1       1.723   7.175  -0.922  0.00  0.00    +0.000 C 
ENDBRANCH  20  22
ENDBRANCH  19  20
ENDBRANCH  16  19
ENDBRANCH   1  16
TORSDOF 8
ENDMDL
MODEL      454
REMARK  Name = ZINC31904737
REMARK  10 active torsions:
REMARK  status: ('A' for Active; 'I' for Inactive)
REMARK    1  A    between atoms: C_1  and  C_2
REMARK    2  A    between atoms: N_4  and  C_15
REMARK    3  A    between atoms: N_7  and  C_10
REMARK    4  A    between atoms: C_10  and  C_11
REMARK    5  A    between atoms: C_11  and  C_12
REMARK    6  A    between atoms: C_12  and  C_13
REMARK    7  A    between atoms: C_13  and  O_14
REMARK    8  A    between atoms: C_17  and  N_22
REMARK    9  A    between atoms: C_18  and  C_20
REMARK   10  A    between atoms: C_20  and  O_21
REMARK                            x       y       z     vdW  Elec       q    Type
REMARK                         _______ _______ _______ _____ _____    ______ ____
ROOT
ATOM      1  C   UNL     1      -1.500   4.851   2.822  0.00  0.00    +0.000 C 
ATOM      2  C   UNL     1      -1.449   3.376   2.519  0.00  0.00    +0.000 A 
ATOM      3  C   UNL     1      -0.777   2.921   1.440  0.00  0.00    +0.000 A 
ATOM      4  N   UNL     1      -0.742   1.579   1.179  0.00  0.00    +0.000 N 
ATOM      5  C   UNL     1      -1.374   0.707   1.986  0.00  0.00    +0.000 A 
ATOM      6  O   UNL     1      -1.333  -0.482   1.733  0.00  0.00    +0.000 OA
ATOM      7  N   UNL     1      -2.047   1.132   3.072  0.00  0.00    +0.000 N 
ATOM      8  C   UNL     1      -2.106   2.447   3.363  0.00  0.00    +0.000 A 
ATOM      9  O   UNL     1      -2.718   2.833   4.342  0.00  0.00    +0.000 OA
ENDROOT
BRANCH   4  10
ATOM     10  C   UNL     1      -0.013   1.086   0.008  0.00  0.00    +0.000 C 
ATOM     11  C   UNL     1      -0.653   1.622  -1.292  0.00  0.00    +0.000 C 
ATOM     12  C   UNL     1       0.552   1.893  -2.220  0.00  0.00    +0.000 C 
ATOM     13  C   UNL     1       1.778   1.488  -1.371  0.00  0.00    +0.000 C 
ATOM     14  O   UNL     1       1.334   1.607  -0.002  0.00  0.00    +0.000 OA
BRANCH  12  15
ATOM     15  N   UNL     1       0.620   3.312  -2.576  0.00  0.00    +0.000 NA
ATOM     16  N   UNL     1      -0.150   3.757  -3.264  0.00  0.00    +0.000 NA
ATOM     17  N   UNL     1      -0.920   4.201  -3.952  0.00  0.00    +0.000 NA
ENDBRANCH  12  15
BRANCH  13  18
ATOM     18  C   UNL     1       2.948   2.438  -1.636  0.00  0.00    +0.000 C 
BRANCH  18  19
ATOM     19  O   UNL     1       4.083   2.018  -0.875  0.00  0.00    +0.000 OA
ATOM     20  H   UNL     1       4.338   1.099  -1.140  0.00  0.00    +0.000 HD
ENDBRANCH  18  19
ENDBRANCH  13  18
ENDBRANCH   4  10
BRANCH   7  21
ATOM     21  C   UNL     1      -2.722   0.162   3.937  0.00  0.00    +0.000 C 
BRANCH  21  22
ATOM     22  C   UNL     1      -4.154  -0.053   3.442  0.00  0.00    +0.000 C 
BRANCH  22  23
ATOM     23  C   UNL     1      -4.859  -1.066   4.346  0.00  0.00    +0.000 C 
BRANCH  23  24
ATOM     24  C   UNL     1      -6.291  -1.281   3.851  0.00  0.00    +0.000 C 
BRANCH  24  25
ATOM     25  O   UNL     1      -6.950  -2.227   4.695  0.00  0.00    +0.000 OA
ATOM     26  H   UNL     1      -6.971  -1.884   5.623  0.00  0.00    +0.000 HD
ENDBRANCH  24  25
ENDBRANCH  23  24
ENDBRANCH  22  23
ENDBRANCH  21  22
ENDBRANCH   7  21
TORSDOF 9
ENDMDL
MODEL      455
REMARK  Name = ZINC05835556
REMARK  9 active torsions:
REMARK  status: ('A' for Active; 'I' for Inactive)
REMARK    1  A    between atoms: C_1  and  C_2
REMARK    2  A    between atoms: C_2  and  C_3
REMARK    3  A    between atoms: C_3  and  O_4
REMARK    4  A    between atoms: O_4  and  C_5
REMARK    5  A    between atoms: C_5  and  C_7
REMARK    6  A    between atoms: C_13  and  C_15
REMARK    7  A    between atoms: C_15  and  C_16
REMARK    8  A    between atoms: C_15  and  N_20
REMARK    9  A    between atoms: C_16  and  C_17
REMARK                            x       y       z     vdW  Elec       q    Type
REMARK                         _______ _______ _______ _____ _____    ______ ____
ROOT
ATOM      1  C   UNL     1       0.255  -1.051   3.948  0.00  0.00    +0.000 C 
ATOM      2  C   UNL     1      -0.532  -2.086   4.751  0.00  0.00    +0.000 C 
ATOM      3  C   UNL     1       0.148  -2.491   3.413  0.00  0.00    +0.000 C 
ATOM      4  C   UNL     1      -0.679  -2.375   2.111  0.00  0.00    +0.000 C 
ATOM      5  C   UNL     1      -1.466  -1.048   2.332  0.00  0.00    +0.000 C 
ATOM      6  N   UNL     1      -0.469  -0.183   3.003  0.00  0.00    +0.000 N 
ATOM      7  C   UNL     1      -0.269   1.134   2.796  0.00  0.00    +0.000 C 
ATOM      8  O   UNL     1       0.516   1.745   3.490  0.00  0.00    +0.000 OA
ENDROOT
BRANCH   1   9
ATOM      9  C   UNL     1       1.555  -0.529   4.505  0.00  0.00    +0.000 C 
ATOM     10  O   UNL     1       1.839  -0.727   5.663  0.00  0.00    +0.000 OA
BRANCH   9  11
ATOM     11  O   UNL     1       2.396   0.156   3.716  0.00  0.00    +0.000 OA
BRANCH  11  12
ATOM     12  C   UNL     1       3.629   0.629   4.319  0.00  0.00    +0.000 C 
BRANCH  12  14
ATOM     13  C   UNL     1       5.753   1.880   3.909  0.00  0.00    +0.000 C 
ATOM     14  C   UNL     1       4.454   1.382   3.273  0.00  0.00    +0.000 C 
ENDBRANCH  12  14
ENDBRANCH  11  12
ENDBRANCH   9  11
ENDBRANCH   1   9
BRANCH   7  15
ATOM     15  C   UNL     1      -1.020   1.847   1.701  0.00  0.00    +0.000 C 
BRANCH  15  16
ATOM     16  N   UNL     1      -1.025   3.292   1.987  0.00  0.00    +0.000 N 
ATOM     17  H   UNL     1      -0.057   3.644   2.023  0.00  0.00    +0.000 HD
ATOM     18  H   UNL     1      -1.489   3.467   2.890  0.00  0.00    +0.000 HD
ATOM     19  H   UNL     1      -1.537   3.785   1.241  0.00  0.00    +0.000 HD
ENDBRANCH  15  16
BRANCH  15  20
ATOM     20  C   UNL     1      -0.344   1.571   0.356  0.00  0.00    +0.000 C 
BRANCH  20  21
ATOM     21  C   UNL     1      -1.163   2.182  -0.752  0.00  0.00    +0.000 C 
ATOM     22  O   UNL     1      -2.182   2.776  -0.493  0.00  0.00    +0.000 OA
ATOM     23  O   UNL     1      -0.760   2.065  -2.027  0.00  0.00    +0.000 OA
ENDBRANCH  20  21
ENDBRANCH  15  20
ENDBRANCH   7  15
TORSDOF 8
ENDMDL
MODEL      456
REMARK  Name = ZINC04535183
REMARK  9 active torsions:
REMARK  status: ('A' for Active; 'I' for Inactive)
REMARK    1  A    between atoms: C_1  and  C_2
REMARK    2  A    between atoms: C_2  and  C_4
REMARK    3  A    between atoms: N_8  and  C_16
REMARK    4  A    between atoms: C_9  and  C_10
REMARK    5  A    between atoms: C_16  and  C_17
REMARK    6  A    between atoms: C_17  and  N_22
REMARK    7  A    between atoms: C_18  and  C_19
REMARK    8  A    between atoms: C_18  and  N_22
REMARK    9  A    between atoms: C_19  and  O_20
REMARK                            x       y       z     vdW  Elec       q    Type
REMARK                         _______ _______ _______ _____ _____    ______ ____
ROOT
ATOM      1  C   UNL     1      -0.845   1.702  -1.108  0.00  0.00    +0.000 C 
ATOM      2  C   UNL     1      -1.867   2.362  -0.509  0.00  0.00    +0.000 C 
ATOM      3  C   UNL     1      -1.733   2.232   0.959  0.00  0.00    +0.000 C 
ATOM      4  O   UNL     1      -2.495   2.713   1.774  0.00  0.00    +0.000 OA
ATOM      5  N   UNL     1      -0.641   1.502   1.258  0.00  0.00    +0.000 N 
ATOM      6  C   UNL     1      -0.000   1.113  -0.003  0.00  0.00    +0.000 C 
ATOM      7  O   UNL     1      -2.851   3.031  -1.150  0.00  0.00    +0.000 OA
ENDROOT
BRANCH   6   8
ATOM      8  C   UNL     1       1.399   1.670  -0.067  0.00  0.00    +0.000 A 
ATOM      9  C   UNL     1       2.469   0.846  -0.383  0.00  0.00    +0.000 A 
ATOM     10  C   UNL     1       3.737   1.403  -0.435  0.00  0.00    +0.000 A 
ATOM     11  C   UNL     1       3.893   2.749  -0.161  0.00  0.00    +0.000 A 
ATOM     12  N   UNL     1       2.853   3.501   0.141  0.00  0.00    +0.000 NA
ATOM     13  C   UNL     1       1.632   3.007   0.194  0.00  0.00    +0.000 A 
ENDBRANCH   6   8
BRANCH   1  15
ATOM     14  C   UNL     1       0.495   0.706  -3.010  0.00  0.00    +0.000 C 
ATOM     15  C   UNL     1      -0.615   1.588  -2.500  0.00  0.00    +0.000 C 
ATOM     16  O   UNL     1      -1.311   2.201  -3.283  0.00  0.00    +0.000 OA
ENDBRANCH   1  15
BRANCH   5  17
ATOM     17  C   UNL     1      -0.176   1.158   2.603  0.00  0.00    +0.000 C 
BRANCH  17  18
ATOM     18  C   UNL     1       0.782   2.241   3.104  0.00  0.00    +0.000 C 
BRANCH  18  19
ATOM     19  N   UNL     1       1.246   1.887   4.459  0.00  0.00    +0.000 N 
ATOM     20  H   UNL     1       0.435   1.816   5.090  0.00  0.00    +0.000 HD
ATOM     21  H   UNL     1       1.729   0.978   4.429  0.00  0.00    +0.000 HD
BRANCH  19  22
ATOM     22  C   UNL     1       2.172   2.915   4.968  0.00  0.00    +0.000 C 
BRANCH  22  23
ATOM     23  C   UNL     1       2.636   2.521   6.372  0.00  0.00    +0.000 C 
BRANCH  23  24
ATOM     24  O   UNL     1       3.403   1.318   6.301  0.00  0.00    +0.000 OA
ATOM     25  H   UNL     1       4.193   1.463   5.722  0.00  0.00    +0.000 HD
ENDBRANCH  23  24
ENDBRANCH  22  23
ENDBRANCH  19  22
ENDBRANCH  18  19
ENDBRANCH  17  18
ENDBRANCH   5  17
TORSDOF 8
ENDMDL
MODEL      457
REMARK  Name = ZINC29840100
REMARK  11 active torsions:
REMARK  status: ('A' for Active; 'I' for Inactive)
REMARK    1  A    between atoms: C_1  and  C_2
REMARK    2  A    between atoms: C_2  and  C_3
REMARK    3  A    between atoms: C_3  and  C_20
REMARK    4  A    between atoms: N_6  and  N_10
REMARK    5  A    between atoms: C_11  and  C_13
REMARK    6  A    between atoms: C_13  and  N_14
REMARK    7  A    between atoms: N_14  and  C_15
REMARK    8  A    between atoms: N_14  and  C_17
REMARK    9  A    between atoms: C_15  and  C_16
REMARK   10  A    between atoms: C_17  and  C_18
REMARK   11  A    between atoms: C_18  and  O_19
REMARK                            x       y       z     vdW  Elec       q    Type
REMARK                         _______ _______ _______ _____ _____    ______ ____
ROOT
ATOM      1  N   UNL     1      -0.028   6.143   3.750  0.00  0.00    +0.000 N 
ATOM      2  C   UNL     1       0.142   4.949   3.149  0.00  0.00    +0.000 C 
ATOM      3  O   UNL     1       0.090   3.928   3.802  0.00  0.00    +0.000 OA
ATOM      4  H   UNL     1       0.017   7.010   3.195  0.00  0.00    +0.000 HD
ENDROOT
BRANCH   1   8
ATOM      5  C   UNL     1      -1.247   6.434   7.179  0.00  0.00    +0.000 C 
ATOM      6  C   UNL     1      -1.466   6.472   5.680  0.00  0.00    +0.000 C 
ATOM      7  O   UNL     1      -2.505   6.694   5.097  0.00  0.00    +0.000 OA
ATOM      8  N   UNL     1      -0.265   6.206   5.130  0.00  0.00    +0.000 N 
ATOM      9  C   UNL     1       0.674   6.014   6.063  0.00  0.00    +0.000 C 
ATOM     10  O   UNL     1       1.837   5.764   5.811  0.00  0.00    +0.000 OA
ATOM     11  N   UNL     1       0.188   6.129   7.312  0.00  0.00    +0.000 NA
ATOM     12  C   UNL     1      -1.568   7.795   7.801  0.00  0.00    +0.000 C 
BRANCH   5  14
ATOM     13  C   UNL     1      -1.769   5.256   9.320  0.00  0.00    +0.000 C 
ATOM     14  C   UNL     1      -2.092   5.336   7.827  0.00  0.00    +0.000 C 
ENDBRANCH   5  14
ENDBRANCH   1   8
BRANCH   2  15
ATOM     15  C   UNL     1       0.397   4.882   1.665  0.00  0.00    +0.000 C 
BRANCH  15  16
ATOM     16  N   UNL     1       0.409   3.478   1.233  0.00  0.00    +0.000 NA
BRANCH  16  17
ATOM     17  C   UNL     1      -0.947   2.911   1.250  0.00  0.00    +0.000 C 
ATOM     18  C   UNL     1      -1.779   3.548   0.136  0.00  0.00    +0.000 C 
ENDBRANCH  16  17
BRANCH  16  19
ATOM     19  C   UNL     1       1.021   3.340  -0.095  0.00  0.00    +0.000 C 
BRANCH  19  20
ATOM     20  C   UNL     1       1.387   1.875  -0.339  0.00  0.00    +0.000 C 
BRANCH  20  21
ATOM     21  O   UNL     1       0.195   1.089  -0.392  0.00  0.00    +0.000 OA
ATOM     22  H   UNL     1      -0.381   1.411  -1.130  0.00  0.00    +0.000 HD
ENDBRANCH  20  21
ENDBRANCH  19  20
ENDBRANCH  16  19
ENDBRANCH  15  16
ENDBRANCH   2  15
TORSDOF 8
ENDMDL
MODEL      458
REMARK  Name = ZINC05677695
REMARK  8 active torsions:
REMARK  status: ('A' for Active; 'I' for Inactive)
REMARK    1  A    between atoms: C_1  and  C_2
REMARK    2  A    between atoms: C_2  and  N_16
REMARK    3  A    between atoms: C_9  and  C_10
REMARK    4  A    between atoms: C_9  and  N_16
REMARK    5  A    between atoms: C_10  and  C_11
REMARK    6  A    between atoms: C_11  and  C_12
REMARK    7  A    between atoms: C_12  and  C_13
REMARK    8  A    between atoms: C_13  and  C_14
REMARK                            x       y       z     vdW  Elec       q    Type
REMARK                         _______ _______ _______ _____ _____    ______ ____
ROOT
ATOM      1  N   UNL     1      -2.814   3.740  -1.446  0.00  0.00    +0.000 N 
ATOM      2  H   UNL     1      -2.079   4.455  -1.550  0.00  0.00    +0.000 HD
ATOM      3  H   UNL     1      -3.091   3.403  -2.379  0.00  0.00    +0.000 HD
ENDROOT
BRANCH   1   5
ATOM      4  C   UNL     1      -3.372   1.540  -0.507  0.00  0.00    +0.000 C 
ATOM      5  C   UNL     1      -2.289   2.612  -0.653  0.00  0.00    +0.000 C 
ATOM      6  C   UNL     1      -1.876   3.112   0.741  0.00  0.00    +0.000 C 
ATOM      7  C   UNL     1      -1.039   1.995   1.430  0.00  0.00    +0.000 C 
ATOM      8  S   UNL     1      -0.017   1.417   0.010  0.00  0.00    +0.000 S 
ATOM      9  O   UNL     1       0.002  -0.004   0.002  0.00  0.00    +0.000 OA
ATOM     10  O   UNL     1       1.210   2.133   0.002  0.00  0.00    +0.000 OA
ATOM     11  C   UNL     1      -1.064   2.009  -1.382  0.00  0.00    +0.000 C 
ENDBRANCH   1   5
BRANCH   1  12
ATOM     12  C   UNL     1      -3.984   4.336  -0.775  0.00  0.00    +0.000 C 
BRANCH  12  13
ATOM     13  C   UNL     1      -4.506   5.501  -1.619  0.00  0.00    +0.000 C 
BRANCH  13  14
ATOM     14  C   UNL     1      -5.721   6.126  -0.930  0.00  0.00    +0.000 C 
BRANCH  14  15
ATOM     15  C   UNL     1      -6.242   7.291  -1.774  0.00  0.00    +0.000 C 
BRANCH  15  16
ATOM     16  C   UNL     1      -7.457   7.916  -1.085  0.00  0.00    +0.000 C 
BRANCH  16  17
ATOM     17  C   UNL     1      -7.971   9.063  -1.916  0.00  0.00    +0.000 C 
ATOM     18  O   UNL     1      -7.421   9.352  -2.953  0.00  0.00    +0.000 OA
ATOM     19  O   UNL     1      -9.038   9.765  -1.504  0.00  0.00    +0.000 OA
ENDBRANCH  16  17
ENDBRANCH  15  16
ENDBRANCH  14  15
ENDBRANCH  13  14
ENDBRANCH  12  13
ENDBRANCH   1  12
TORSDOF 7
ENDMDL
MODEL      459
REMARK  Name = ZINC19794097
REMARK  10 active torsions:
REMARK  status: ('A' for Active; 'I' for Inactive)
REMARK    1  A    between atoms: C_1  and  N_2
REMARK    2  A    between atoms: N_2  and  C_3
REMARK    3  A    between atoms: N_2  and  C_4
REMARK    4  A    between atoms: C_4  and  C_5
REMARK    5  A    between atoms: C_5  and  C_6
REMARK    6  A    between atoms: C_14  and  N_16
REMARK    7  A    between atoms: N_16  and  CA_17
REMARK    8  A    between atoms: CA_17  and  CB_18
REMARK    9  A    between atoms: CA_17  and  C_20
REMARK   10  A    between atoms: CB_18  and  OG_19
REMARK                            x       y       z     vdW  Elec       q    Type
REMARK                         _______ _______ _______ _____ _____    ______ ____
ROOT
ATOM      1  C   UNK A   0      -1.194   5.820   0.044  0.00  0.00    +0.000 A 
ATOM      2  N   UNK A   0      -0.044   5.189   0.031  0.00  0.00    +0.000 NA
ATOM      3  C   UNK A   0      -0.004   3.849   0.023  0.00  0.00    +0.000 A 
ATOM      4  C   UNK A   0       1.206   3.142   0.008  0.00  0.00    +0.000 A 
ATOM      5  C   UNK A   0       1.189   1.779   0.000  0.00  0.00    +0.000 A 
ATOM      6  C   UNK A   0      -0.013   1.076   0.008  0.00  0.00    +0.000 A 
ATOM      7  C   UNK A   0      -1.208   1.732   0.017  0.00  0.00    +0.000 A 
ATOM      8  C   UNK A   0      -1.226   3.131   0.030  0.00  0.00    +0.000 A 
ATOM      9  C   UNK A   0      -2.434   3.869   0.045  0.00  0.00    +0.000 A 
ATOM     10  N   UNK A   0      -2.360   5.194   0.052  0.00  0.00    +0.000 NA
ENDROOT
BRANCH   9  11
ATOM     11  N   SER A   1      -3.655   3.229   0.053  0.00  0.00    +0.000 N 
ATOM     12  H   SER A   1      -3.696   2.199   0.048  0.00  0.00    +0.000 HD
BRANCH  11  13
ATOM     13  CA  SER A   1      -4.893   4.012   0.069  0.00  0.00    +0.000 C 
BRANCH  13  14
ATOM     14  C   SER A   1      -5.238   4.377   1.489  0.00  0.00    +0.000 C 
ATOM     15  O   SER A   1      -4.524   4.020   2.396  0.00  0.00    +0.000 OA
ATOM     16  OXT SER A   1      -6.340   5.099   1.748  0.00  0.00    +0.000 OA
ENDBRANCH  13  14
BRANCH  13  17
ATOM     17  CB  SER A   1      -6.029   3.183  -0.535  0.00  0.00    +0.000 C 
BRANCH  17  18
ATOM     18  OG  SER A   1      -6.287   2.050   0.298  0.00  0.00    +0.000 OA
ATOM     19  H   SER A   1      -6.548   2.358   1.202  0.00  0.00    +0.000 HD
ENDBRANCH  17  18
ENDBRANCH  13  17
ENDBRANCH  11  13
ENDBRANCH   9  11
BRANCH   1  20
ATOM     20  C   UNK A   0      -1.188   7.327   0.052  0.00  0.00    +0.000 C 
BRANCH  20  21
ATOM     21  C   UNK A   0      -1.199   7.845  -1.387  0.00  0.00    +0.000 C 
BRANCH  21  23
ATOM     22  C   UNK A   0      -0.965   9.846  -2.730  0.00  0.00    +0.000 C 
ATOM     23  N   UNK A   0      -1.193   9.314  -1.380  0.00  0.00    +0.000 N 
ATOM     24  C   UNK A   0      -2.439   9.843  -0.808  0.00  0.00    +0.000 C 
ATOM     25  H   UNK A   0      -0.414   9.624  -0.781  0.00  0.00    +0.000 HD
ENDBRANCH  21  23
ENDBRANCH  20  21
ENDBRANCH   1  20
TORSDOF 8
ENDMDL
MODEL      460
REMARK  Name = ZINC17163139
REMARK  9 active torsions:
REMARK  status: ('A' for Active; 'I' for Inactive)
REMARK    1  A    between atoms: C_1  and  C_2
REMARK    2  A    between atoms: C_2  and  N_18
REMARK    3  A    between atoms: C_3  and  C_4
REMARK    4  A    between atoms: C_3  and  N_18
REMARK    5  A    between atoms: C_5  and  C_6
REMARK    6  A    between atoms: C_5  and  N_18
REMARK    7  A    between atoms: C_6  and  N_7
REMARK    8  A    between atoms: C_8  and  C_10
REMARK    9  A    between atoms: C_11  and  N_15
REMARK                            x       y       z     vdW  Elec       q    Type
REMARK                         _______ _______ _______ _____ _____    ______ ____
ROOT
ATOM      1  N   UNL     1      -2.980   4.382   1.168  0.00  0.00    +0.000 N 
ATOM      2  C   UNL     1      -1.685   4.673   1.400  0.00  0.00    +0.000 C 
ATOM      3  O   UNL     1      -1.289   5.818   1.293  0.00  0.00    +0.000 OA
ATOM      4  H   UNL     1      -3.315   3.412   1.258  0.00  0.00    +0.000 HD
ENDROOT
BRANCH   2   5
ATOM      5  C   UNL     1      -0.747   3.603   1.785  0.00  0.00    +0.000 A 
ATOM      6  C   UNL     1       0.583   3.753   2.049  0.00  0.00    +0.000 A 
ATOM      7  N   UNL     1       1.062   2.520   2.361  0.00  0.00    +0.000 NA
ATOM      8  C   UNL     1       0.027   1.644   2.284  0.00  0.00    +0.000 A 
ATOM      9  N   UNL     1      -1.049   2.288   1.936  0.00  0.00    +0.000 NA
BRANCH   6  10
ATOM     10  N   UNL     1       1.355   5.015   2.004  0.00  0.00    +0.000 N 
ATOM     11  O   UNL     1       2.545   5.011   2.263  0.00  0.00    +0.000 OA
ATOM     12  O   UNL     1       0.800   6.058   1.708  0.00  0.00    +0.000 OA
ENDBRANCH   6  10
ENDBRANCH   2   5
BRANCH   1  13
ATOM     13  C   UNL     1      -3.912   5.446   0.785  0.00  0.00    +0.000 C 
BRANCH  13  14
ATOM     14  C   UNL     1      -5.307   4.853   0.582  0.00  0.00    +0.000 C 
BRANCH  14  15
ATOM     15  N   UNL     1      -6.239   5.940   0.218  0.00  0.00    +0.000 N 
ATOM     16  H   UNL     1      -6.155   6.699   0.909  0.00  0.00    +0.000 HD
BRANCH  15  18
ATOM     17  C   UNL     1      -5.991   5.363  -2.173  0.00  0.00    +0.000 C 
ATOM     18  C   UNL     1      -5.900   6.470  -1.120  0.00  0.00    +0.000 C 
ENDBRANCH  15  18
BRANCH  15  19
ATOM     19  C   UNL     1      -7.630   5.438   0.225  0.00  0.00    +0.000 C 
ATOM     20  C   UNL     1      -8.584   6.633   0.210  0.00  0.00    +0.000 C 
ENDBRANCH  15  19
ENDBRANCH  14  15
ENDBRANCH  13  14
ENDBRANCH   1  13
TORSDOF 7
ENDMDL
MODEL      461
REMARK  Name = ZINC02399350
REMARK  10 active torsions:
REMARK  status: ('A' for Active; 'I' for Inactive)
REMARK    1  A    between atoms: C_1  and  C_2
REMARK    2  A    between atoms: C_2  and  N_20
REMARK    3  A    between atoms: C_3  and  C_4
REMARK    4  A    between atoms: C_3  and  N_20
REMARK    5  A    between atoms: C_5  and  C_6
REMARK    6  A    between atoms: C_5  and  N_20
REMARK    7  A    between atoms: C_6  and  N_7
REMARK    8  A    between atoms: N_7  and  N_8
REMARK    9  A    between atoms: N_8  and  C_9
REMARK   10  A    between atoms: C_9  and  C_11
REMARK                            x       y       z     vdW  Elec       q    Type
REMARK                         _______ _______ _______ _____ _____    ______ ____
ROOT
ATOM      1  C   UNL     1      -1.942   3.614  -1.181  0.00  0.00    +0.000 C 
ATOM      2  C   UNL     1      -3.092   4.244  -1.032  0.00  0.00    +0.000 C 
ENDROOT
BRANCH   1   3
ATOM      3  C   UNL     1      -1.175   3.148   0.029  0.00  0.00    +0.000 A 
ATOM      4  C   UNL     1      -1.167   1.631   0.022  0.00  0.00    +0.000 A 
ATOM      5  O   UNL     1      -2.200   0.997   0.025  0.00  0.00    +0.000 OA
ATOM      6  N   UNL     1       0.033   1.013   0.016  0.00  0.00    +0.000 N 
ATOM      7  C   UNL     1       1.182   1.698   0.007  0.00  0.00    +0.000 A 
ATOM      8  O   UNL     1       2.217   1.062  -0.003  0.00  0.00    +0.000 OA
ATOM      9  N   UNL     1       1.275   3.033   0.008  0.00  0.00    +0.000 N 
ATOM     10  C   UNL     1       0.182   3.825   0.018  0.00  0.00    +0.000 A 
ATOM     11  O   UNL     1       0.281   5.034   0.019  0.00  0.00    +0.000 OA
ATOM     12  H   UNL     1       0.066  -0.016   0.018  0.00  0.00    +0.000 HD
ATOM     13  H   UNL     1       2.208   3.469   0.000  0.00  0.00    +0.000 HD
ENDBRANCH   1   3
BRANCH   1  14
ATOM     14  N   UNL     1      -1.438   3.381  -2.455  0.00  0.00    +0.000 N 
ATOM     15  H   UNL     1      -0.541   2.890  -2.572  0.00  0.00    +0.000 HD
BRANCH  14  16
ATOM     16  N   UNL     1      -2.133   3.804  -3.552  0.00  0.00    +0.000 NA
ATOM     17  H   UNL     1      -2.253   4.826  -3.504  0.00  0.00    +0.000 HD
BRANCH  16  18
ATOM     18  C   UNL     1      -1.424   3.457  -4.791  0.00  0.00    +0.000 C 
BRANCH  18  19
ATOM     19  C   UNL     1      -2.231   3.945  -5.995  0.00  0.00    +0.000 C 
BRANCH  19  20
ATOM     20  N   UNL     1      -1.439   3.715  -7.221  0.00  0.00    +0.000 N 
ATOM     21  H   UNL     1      -0.458   3.973  -7.039  0.00  0.00    +0.000 HD
BRANCH  20  22
ATOM     22  C   UNL     1      -1.959   4.552  -8.323  0.00  0.00    +0.000 C 
ATOM     23  C   UNL     1      -1.474   5.989  -8.118  0.00  0.00    +0.000 C 
ENDBRANCH  20  22
BRANCH  20  25
ATOM     24  C   UNL     1      -0.498   2.036  -8.731  0.00  0.00    +0.000 C 
ATOM     25  C   UNL     1      -1.498   2.288  -7.600  0.00  0.00    +0.000 C 
ENDBRANCH  20  25
ENDBRANCH  19  20
ENDBRANCH  18  19
ENDBRANCH  16  18
ENDBRANCH  14  16
ENDBRANCH   1  14
TORSDOF 8
ENDMDL
MODEL      462
REMARK  Name = ZINC20236263
REMARK  11 active torsions:
REMARK  status: ('A' for Active; 'I' for Inactive)
REMARK    1  A    between atoms: C_1  and  C_2
REMARK    2  A    between atoms: C_2  and  O_3
REMARK    3  A    between atoms: O_3  and  C_4
REMARK    4  A    between atoms: C_7  and  N_10
REMARK    5  A    between atoms: N_10  and  C_11
REMARK    6  A    between atoms: N_10  and  S_14
REMARK    7  A    between atoms: C_11  and  C_12
REMARK    8  A    between atoms: C_12  and  N_13
REMARK    9  A    between atoms: S_14  and  N_17
REMARK   10  A    between atoms: N_17  and  C_18
REMARK   11  A    between atoms: N_17  and  C_19
REMARK                            x       y       z     vdW  Elec       q    Type
REMARK                         _______ _______ _______ _____ _____    ______ ____
ROOT
ATOM      1  N   UNL     1       1.234  -2.081  -0.021  0.00  0.00    +0.000 N 
ENDROOT
BRANCH   1   5
ATOM      2  C   UNL     1       1.175   2.087   0.002  0.00  0.00    +0.000 A 
ATOM      3  C   UNL     1      -0.017   1.377   0.010  0.00  0.00    +0.000 A 
ATOM      4  C   UNL     1       0.002  -0.004   0.002  0.00  0.00    +0.000 A 
ATOM      5  C   UNL     1       1.214  -0.681  -0.013  0.00  0.00    +0.000 A 
ATOM      6  C   UNL     1       2.406   0.030  -0.021  0.00  0.00    +0.000 A 
ATOM      7  C   UNL     1       2.386   1.411  -0.013  0.00  0.00    +0.000 A 
BRANCH   2   8
ATOM      8  O   UNL     1       1.155   3.447   0.009  0.00  0.00    +0.000 OA
BRANCH   8  10
ATOM      9  C   UNL     1       2.197   5.628   0.010  0.00  0.00    +0.000 C 
ATOM     10  C   UNL     1       2.419   4.114   0.001  0.00  0.00    +0.000 C 
ENDBRANCH   8  10
ENDBRANCH   2   8
ENDBRANCH   1   5
BRANCH   1  11
ATOM     11  S   UNL     1       2.539  -2.887  -0.643  0.00  0.00    +0.000 S 
ATOM     12  O   UNL     1       2.049  -4.116  -1.161  0.00  0.00    +0.000 OA
ATOM     13  O   UNL     1       3.250  -1.952  -1.444  0.00  0.00    +0.000 OA
BRANCH  11  14
ATOM     14  N   UNL     1       3.530  -3.271   0.627  0.00  0.00    +0.000 NA
ATOM     15  C   UNL     1       3.446  -4.596   1.247  0.00  0.00    +0.000 C 
ATOM     16  C   UNL     1       4.489  -2.285   1.132  0.00  0.00    +0.000 C 
ENDBRANCH  11  14
ENDBRANCH   1  11
BRANCH   1  17
ATOM     17  C   UNL     1       0.100  -2.832   0.523  0.00  0.00    +0.000 C 
BRANCH  17  18
ATOM     18  C   UNL     1      -0.973  -2.988  -0.556  0.00  0.00    +0.000 C 
BRANCH  18  19
ATOM     19  N   UNL     1      -2.110  -3.742  -0.011  0.00  0.00    +0.000 N 
ATOM     20  H   UNL     1      -2.505  -3.235   0.793  0.00  0.00    +0.000 HD
ATOM     21  H   UNL     1      -1.792  -4.673   0.292  0.00  0.00    +0.000 HD
ATOM     22  H   UNL     1      -2.833  -3.847  -0.738  0.00  0.00    +0.000 HD
ENDBRANCH  18  19
ENDBRANCH  17  18
ENDBRANCH   1  17
TORSDOF 8
ENDMDL
MODEL      463
REMARK  Name = ZINC31543777
REMARK  8 active torsions:
REMARK  status: ('A' for Active; 'I' for Inactive)
REMARK    1  A    between atoms: C_1  and  C_2
REMARK    2  A    between atoms: C_2  and  O_3
REMARK    3  A    between atoms: O_3  and  C_4
REMARK    4  A    between atoms: C_4  and  C_6
REMARK    5  A    between atoms: C_6  and  N_7
REMARK    6  A    between atoms: C_8  and  C_10
REMARK    7  A    between atoms: C_12  and  N_19
REMARK    8  A    between atoms: C_15  and  N_16
REMARK                            x       y       z     vdW  Elec       q    Type
REMARK                         _______ _______ _______ _____ _____    ______ ____
ROOT
ATOM      1  C   UNL     1       2.378   3.878   0.353  0.00  0.00    +0.000 A 
ATOM      2  C   UNL     1       1.628   3.010   1.127  0.00  0.00    +0.000 A 
ATOM      3  C   UNL     1       1.564   1.590   0.736  0.00  0.00    +0.000 A 
ATOM      4  C   UNL     1       2.310   1.161  -0.462  0.00  0.00    +0.000 A 
ATOM      5  C   UNL     1       3.019   2.081  -1.169  0.00  0.00    +0.000 A 
ATOM      6  C   UNL     1       3.063   3.413  -0.779  0.00  0.00    +0.000 A 
ENDROOT
BRANCH   1   8
ATOM      7  N   UNL     1       1.331   6.021   0.908  0.00  0.00    +0.000 N 
ATOM      8  C   UNL     1       2.460   5.308   0.724  0.00  0.00    +0.000 C 
ATOM      9  O   UNL     1       3.544   5.839   0.862  0.00  0.00    +0.000 OA
ATOM     10  H   UNL     1       0.412   5.571   0.791  0.00  0.00    +0.000 HD
BRANCH   7  11
ATOM     11  C   UNL     1       1.411   7.437   1.275  0.00  0.00    +0.000 C 
BRANCH  11  12
ATOM     12  C   UNL     1       0.020   7.998   1.420  0.00  0.00    +0.000 C 
ATOM     13  N   UNL     1      -1.005   7.240   1.223  0.00  0.00    +0.000 NA
ATOM     14  H   UNL     1      -1.956   7.624   1.322  0.00  0.00    +0.000 HD
BRANCH  12  15
ATOM     15  O   UNL     1      -0.153   9.294   1.755  0.00  0.00    +0.000 OA
BRANCH  15  17
ATOM     16  C   UNL     1      -1.495  11.239   2.259  0.00  0.00    +0.000 C 
ATOM     17  C   UNL     1      -1.499   9.758   1.875  0.00  0.00    +0.000 C 
ENDBRANCH  15  17
ENDBRANCH  12  15
ENDBRANCH  11  12
ENDBRANCH   7  11
ENDBRANCH   1   8
BRANCH   3  18
ATOM     18  N   UNL     1       0.868   0.731   1.437  0.00  0.00    +0.000 NA
ATOM     19  N   UNL     1       0.829  -0.348   1.126  0.00  0.00    +0.000 NA
ATOM     20  N   UNL     1       0.790  -1.427   0.814  0.00  0.00    +0.000 NA
ENDBRANCH   3  18
BRANCH   6  21
ATOM     21  N   UNL     1       3.856   4.371  -1.583  0.00  0.00    +0.000 N 
ATOM     22  O   UNL     1       4.611   3.935  -2.570  0.00  0.00    +0.000 OA
ATOM     23  O   UNL     1       3.807   5.658  -1.310  0.00  0.00    +0.000 OA
ENDBRANCH   6  21
TORSDOF 7
ENDMDL
MODEL      464
REMARK  Name = ZINC29747897
REMARK  8 active torsions:
REMARK  status: ('A' for Active; 'I' for Inactive)
REMARK    1  A    between atoms: C_1  and  N_2
REMARK    2  A    between atoms: C_3  and  S_8
REMARK    3  A    between atoms: S_8  and  C_9
REMARK    4  A    between atoms: C_9  and  C_10
REMARK    5  A    between atoms: N_15  and  C_16
REMARK    6  A    between atoms: C_16  and  C_17
REMARK    7  A    between atoms: C_17  and  O_18
REMARK    8  A    between atoms: O_18  and  C_19
REMARK                            x       y       z     vdW  Elec       q    Type
REMARK                         _______ _______ _______ _____ _____    ______ ____
ROOT
ATOM      1  C   UNL     1      -0.724   1.610  -1.213  0.00  0.00    +0.000 C 
ATOM      2  O   UNL     1      -1.713   2.300  -1.089  0.00  0.00    +0.000 OA
ATOM      3  N   UNL     1      -0.271   1.298  -2.443  0.00  0.00    +0.000 N 
ATOM      4  C   UNL     1      -0.917   1.752  -3.535  0.00  0.00    +0.000 C 
ATOM      5  O   UNL     1      -1.909   2.444  -3.410  0.00  0.00    +0.000 OA
ATOM      6  N   UNL     1      -0.464   1.440  -4.765  0.00  0.00    +0.000 N 
ATOM      7  H   UNL     1       0.569   0.711  -2.549  0.00  0.00    +0.000 HD
ATOM      8  H   UNL     1       0.376   0.853  -4.871  0.00  0.00    +0.000 HD
ENDROOT
BRANCH   1   9
ATOM      9  C   UNL     1      -0.002   1.102   0.008  0.00  0.00    +0.000 C 
BRANCH   9  10
ATOM     10  S   UNL     1      -0.847   1.688   1.497  0.00  0.00    +0.000 S 
BRANCH  10  13
ATOM     11  C   UNL     1      -1.063   1.814   4.774  0.00  0.00    +0.000 C 
ATOM     12  N   UNL     1       0.002   1.080   4.086  0.00  0.00    +0.000 N 
ATOM     13  C   UNL     1       0.179   0.968   2.735  0.00  0.00    +0.000 A 
ATOM     14  N   UNL     1       1.248   0.222   2.516  0.00  0.00    +0.000 N 
ATOM     15  C   UNL     1       1.791  -0.149   3.680  0.00  0.00    +0.000 A 
ATOM     16  O   UNL     1       2.789  -0.835   3.811  0.00  0.00    +0.000 OA
ATOM     17  N   UNL     1       1.050   0.361   4.685  0.00  0.00    +0.000 NA
ATOM     18  H   UNL     1       1.609  -0.035   1.587  0.00  0.00    +0.000 HD
ENDBRANCH  10  13
ENDBRANCH   9  10
ENDBRANCH   1   9
BRANCH   6  19
ATOM     19  C   UNL     1      -1.167   1.934  -5.952  0.00  0.00    +0.000 C 
BRANCH  19  20
ATOM     20  C   UNL     1      -0.452   1.438  -7.211  0.00  0.00    +0.000 C 
BRANCH  20  21
ATOM     21  O   UNL     1      -0.545   0.014  -7.282  0.00  0.00    +0.000 OA
ATOM     22  C   UNL     1       0.095  -0.553  -8.427  0.00  0.00    +0.000 C 
ENDBRANCH  20  21
ENDBRANCH  19  20
ENDBRANCH   6  19
TORSDOF 6
ENDMDL
MODEL      465
REMARK  Name = ZINC31861884
REMARK  8 active torsions:
REMARK  status: ('A' for Active; 'I' for Inactive)
REMARK    1  A    between atoms: C_6  and  C_7
REMARK    2  A    between atoms: C_7  and  C_8
REMARK    3  A    between atoms: C_8  and  P_9
REMARK    4  A    between atoms: P_9  and  C_11
REMARK    5  A    between atoms: C_11  and  C_12
REMARK    6  A    between atoms: C_12  and  CA_13
REMARK    7  A    between atoms: CA_13  and  C_14
REMARK    8  A    between atoms: CA_13  and  N_17
REMARK                            x       y       z     vdW  Elec       q    Type
REMARK                         _______ _______ _______ _____ _____    ______ ____
ROOT
ATOM      1  P   UNL     1       0.002  -0.004   0.002  0.00  0.00    +0.000 P 
ATOM      2  O   UNL     1      -1.386  -0.516   0.013  0.00  0.00    +0.000 OA
ATOM      3  O   UNL     1      -0.020   1.606   0.011  0.00  0.00    +0.000 OA
ENDROOT
BRANCH   1   4
ATOM      4  C   UNL     1       0.884  -0.608   1.479  0.00  0.00    +0.000 C 
BRANCH   4   5
ATOM      5  C   UNL     1       0.100  -0.221   2.735  0.00  0.00    +0.000 C 
BRANCH   5  11
ATOM      6  C   UNL     1      -0.009  -0.460   5.217  0.00  0.00    +0.000 C 
ATOM      7  C   UNL     1      -0.049   1.018   5.502  0.00  0.00    +0.000 C 
ATOM      8  C   UNL     1       1.014   1.775   5.255  0.00  0.00    +0.000 C 
ATOM      9  C   UNL     1       2.233   1.165   4.698  0.00  0.00    +0.000 C 
ATOM     10  C   UNL     1       2.162  -0.016   4.093  0.00  0.00    +0.000 C 
ATOM     11  C   UNL     1       0.840  -0.728   3.974  0.00  0.00    +0.000 C 
ENDBRANCH   5  11
ENDBRANCH   4   5
ENDBRANCH   1   4
BRANCH   1  12
ATOM     12  C   UNL     1       0.855  -0.592  -1.498  0.00  0.00    +0.000 C 
BRANCH  12  13
ATOM     13  C   UNL     1       0.048  -0.191  -2.734  0.00  0.00    +0.000 C 
BRANCH  13  14
ATOM     14  CA  UNL     1       0.764  -0.685  -3.993  0.00  0.00    +0.000 C 
BRANCH  14  15
ATOM     15  N   UNL     1       2.051   0.010  -4.128  0.00  0.00    +0.000 N 
ATOM     16  H1  UNL     1       2.636  -0.185  -3.302  0.00  0.00    +0.000 HD
ATOM     17  H2  UNL     1       1.889   1.024  -4.201  0.00  0.00    +0.000 HD
ATOM     18  H3  UNL     1       2.534  -0.322  -4.975  0.00  0.00    +0.000 HD
ENDBRANCH  14  15
BRANCH  14  19
ATOM     19  C   UNL     1      -0.090  -0.399  -5.201  0.00  0.00    +0.000 C 
ATOM     20  O   UNL     1       0.148   0.561  -5.896  0.00  0.00    +0.000 OA
ATOM     21  OXT UNL     1      -1.114  -1.211  -5.506  0.00  0.00    +0.000 OA
ENDBRANCH  14  19
ENDBRANCH  13  14
ENDBRANCH  12  13
ENDBRANCH   1  12
TORSDOF 8
ENDMDL
MODEL      466
REMARK  Name = ZINC04372270
REMARK  7 active torsions:
REMARK  status: ('A' for Active; 'I' for Inactive)
REMARK    1  A    between atoms: C_3  and  N_7
REMARK    2  A    between atoms: C_8  and  C_10
REMARK    3  A    between atoms: C_10  and  C_11
REMARK    4  A    between atoms: C_11  and  C_12
REMARK    5  A    between atoms: C_11  and  N_21
REMARK    6  A    between atoms: C_14  and  C_15
REMARK    7  A    between atoms: C_14  and  N_21
REMARK                            x       y       z     vdW  Elec       q    Type
REMARK                         _______ _______ _______ _____ _____    ______ ____
ROOT
ATOM      1  C   UNK A   1      -3.296   7.506   0.391  0.00  0.00    +0.000 C 
ENDROOT
BRANCH   1   2
ATOM      2  C   UNK A   1      -4.565   8.278   0.644  0.00  0.00    +0.000 C 
ATOM      3  O   UNK A   1      -4.924   9.124  -0.140  0.00  0.00    +0.000 OA
ATOM      4  O   UNK A   1      -5.297   8.026   1.741  0.00  0.00    +0.000 OA
ENDBRANCH   1   2
BRANCH   1   5
ATOM      5  N   UNK A   1      -2.686   7.961  -0.873  0.00  0.00    +0.000 N 
ATOM      6  H   UNK A   1      -2.106   7.205  -1.264  0.00  0.00    +0.000 HD
ATOM      7  H   UNK A   1      -3.430   8.198  -1.545  0.00  0.00    +0.000 HD
BRANCH   5   8
ATOM      8  C   UNK A   0      -1.845   9.149  -0.637  0.00  0.00    +0.000 C 
BRANCH   8   9
ATOM      9  C   UNK A   0      -1.237   9.591  -1.943  0.00  0.00    +0.000 A 
ATOM     10  C   UNK A   0      -1.780  10.466  -2.808  0.00  0.00    +0.000 A 
ATOM     11  C   UNK A   0      -0.878  10.586  -3.890  0.00  0.00    +0.000 A 
ATOM     12  C   UNK A   0       0.162   9.777  -3.622  0.00  0.00    +0.000 A 
ATOM     13  O   UNK A   0      -0.058   9.181  -2.439  0.00  0.00    +0.000 OA
ENDBRANCH   8   9
ENDBRANCH   5   8
ENDBRANCH   1   5
BRANCH   1  14
ATOM     14  C   UNK A   1      -3.619   6.014   0.285  0.00  0.00    +0.000 C 
BRANCH  14  16
ATOM     15  N   UNK A   1      -2.377   3.888   0.046  0.00  0.00    +0.000 N 
ATOM     16  C   UNK A   1      -2.338   5.231   0.155  0.00  0.00    +0.000 C 
ATOM     17  O   UNK A   1      -1.272   5.809   0.148  0.00  0.00    +0.000 OA
ATOM     18  H   UNK A   1      -3.283   3.404  -0.029  0.00  0.00    +0.000 HD
BRANCH  15  21
ATOM     19  C   UNK A   1       1.073   2.822   0.724  0.00  0.00    +0.000 A 
ATOM     20  C   UNK A   1      -0.084   3.582   0.769  0.00  0.00    +0.000 A 
ATOM     21  C   UNK A   1      -1.187   3.152   0.036  0.00  0.00    +0.000 A 
ATOM     22  C   UNK A   1      -1.091   1.978  -0.700  0.00  0.00    +0.000 A 
ATOM     23  N   UNK A   1       0.028   1.282  -0.711  0.00  0.00    +0.000 NA
ATOM     24  C   UNK A   1       1.092   1.665  -0.033  0.00  0.00    +0.000 A 
ENDBRANCH  15  21
ENDBRANCH  14  16
ENDBRANCH   1  14
TORSDOF 7
ENDMDL
MODEL      467
REMARK  Name = ZINC26174891
REMARK  9 active torsions:
REMARK  status: ('A' for Active; 'I' for Inactive)
REMARK    1  A    between atoms: C_1  and  C_2
REMARK    2  A    between atoms: C_2  and  N_3
REMARK    3  A    between atoms: C_4  and  C_6
REMARK    4  A    between atoms: C_6  and  C_7
REMARK    5  A    between atoms: C_7  and  N_8
REMARK    6  A    between atoms: C_13  and  C_14
REMARK    7  A    between atoms: C_14  and  N_15
REMARK    8  A    between atoms: N_15  and  S_16
REMARK    9  A    between atoms: S_16  and  C_19
REMARK                            x       y       z     vdW  Elec       q    Type
REMARK                         _______ _______ _______ _____ _____    ______ ____
ROOT
ATOM      1  N   UNL     1       0.065   1.016   7.120  0.00  0.00    +0.000 N 
ATOM      2  C   UNL     1      -0.165  -0.434   7.156  0.00  0.00    +0.000 C 
ATOM      3  C   UNL     1       0.773  -1.075   8.181  0.00  0.00    +0.000 C 
ATOM      4  C   UNL     1       0.509  -0.464   9.560  0.00  0.00    +0.000 C 
ATOM      5  C   UNL     1       0.708   1.052   9.484  0.00  0.00    +0.000 C 
ATOM      6  C   UNL     1      -0.228   1.632   8.421  0.00  0.00    +0.000 C 
ATOM      7  H   UNL     1       1.062   1.171   6.917  0.00  0.00    +0.000 HD
ENDROOT
BRANCH   1   8
ATOM      8  C   UNL     1      -0.720   1.647   6.051  0.00  0.00    +0.000 C 
BRANCH   8   9
ATOM      9  C   UNL     1      -0.135   1.257   4.691  0.00  0.00    +0.000 C 
BRANCH   9  11
ATOM     10  N   UNL     1      -0.605   1.702   2.304  0.00  0.00    +0.000 N 
ATOM     11  C   UNL     1      -0.939   1.905   3.594  0.00  0.00    +0.000 C 
ATOM     12  O   UNL     1      -1.887   2.609   3.871  0.00  0.00    +0.000 OA
ATOM     13  H   UNL     1       0.200   1.104   2.069  0.00  0.00    +0.000 HD
BRANCH  10  15
ATOM     14  C   UNL     1      -0.802   1.941  -0.122  0.00  0.00    +0.000 C 
ATOM     15  C   UNL     1      -1.387   2.331   1.237  0.00  0.00    +0.000 C 
ENDBRANCH  10  15
ENDBRANCH   9  11
ENDBRANCH   8   9
ENDBRANCH   1   8
BRANCH   6  16
ATOM     16  C   UNL     1      -0.018   3.145   8.327  0.00  0.00    +0.000 C 
BRANCH  16  17
ATOM     17  N   UNL     1       1.327   3.420   7.816  0.00  0.00    +0.000 NA
ATOM     18  H   UNL     1       2.039   2.676   7.813  0.00  0.00    +0.000 HD
BRANCH  17  19
ATOM     19  S   UNL     1       1.703   4.928   7.245  0.00  0.00    +0.000 S 
ATOM     20  O   UNL     1       3.055   4.828   6.818  0.00  0.00    +0.000 OA
ATOM     21  O   UNL     1       0.671   5.232   6.316  0.00  0.00    +0.000 OA
ATOM     22  C   UNL     1       1.584   6.018   8.690  0.00  0.00    +0.000 C 
ENDBRANCH  17  19
ENDBRANCH  16  17
ENDBRANCH   6  16
TORSDOF 7
ENDMDL
MODEL      468
REMARK  Name = ZINC05736586
REMARK  9 active torsions:
REMARK  status: ('A' for Active; 'I' for Inactive)
REMARK    1  A    between atoms: C_1  and  C_2
REMARK    2  A    between atoms: C_2  and  C_3
REMARK    3  A    between atoms: C_3  and  C_4
REMARK    4  A    between atoms: C_4  and  N_5
REMARK    5  A    between atoms: C_8  and  C_14
REMARK    6  A    between atoms: C_14  and  N_17
REMARK    7  A    between atoms: C_15  and  C_16
REMARK    8  A    between atoms: N_17  and  N_18
REMARK    9  A    between atoms: C_23  and  N_24
REMARK                            x       y       z     vdW  Elec       q    Type
REMARK                         _______ _______ _______ _____ _____    ______ ____
ROOT
ATOM      1  N   UNL     1       0.995   8.820  -2.367  0.00  0.00    +0.000 N 
ATOM      2  C   UNL     1      -0.078   8.005  -2.442  0.00  0.00    +0.000 A 
ATOM      3  O   UNL     1      -0.491   7.606  -3.510  0.00  0.00    +0.000 OA
ATOM      4  C   UNL     1      -0.749   7.607  -1.141  0.00  0.00    +0.000 A 
ATOM      5  C   UNL     1      -0.139   8.171   0.128  0.00  0.00    +0.000 A 
ATOM      6  O   UNL     1      -0.603   7.912   1.218  0.00  0.00    +0.000 OA
ATOM      7  N   UNL     1       0.940   8.973  -0.001  0.00  0.00    +0.000 N 
ATOM      8  C   UNL     1       1.463   9.269  -1.196  0.00  0.00    +0.000 A 
ATOM      9  O   UNL     1       2.434   9.998  -1.221  0.00  0.00    +0.000 OA
ATOM     10  H   UNL     1       1.372   9.368   0.846  0.00  0.00    +0.000 HD
ENDROOT
BRANCH   4  11
ATOM     11  C   UNL     1      -0.728   6.103  -1.043  0.00  0.00    +0.000 C 
ATOM     12  C   UNL     1      -1.861   5.431  -0.960  0.00  0.00    +0.000 C 
ATOM     13  C   UNL     1      -3.177   6.155  -1.084  0.00  0.00    +0.000 C 
BRANCH  11  14
ATOM     14  N   UNL     1       0.484   5.424  -1.040  0.00  0.00    +0.000 N 
ATOM     15  H   UNL     1       1.369   5.951  -1.025  0.00  0.00    +0.000 HD
BRANCH  14  16
ATOM     16  N   UNL     1       0.502   4.059  -1.057  0.00  0.00    +0.000 NA
ATOM     17  C   UNL     1       1.297   3.556  -2.187  0.00  0.00    +0.000 C 
ATOM     18  C   UNL     1       1.226   2.028  -2.217  0.00  0.00    +0.000 C 
ATOM     19  C   UNL     1       0.934   1.994   0.185  0.00  0.00    +0.000 C 
ATOM     20  C   UNL     1       1.004   3.523   0.215  0.00  0.00    +0.000 C 
ATOM     21  C   UNL     1       1.748   0.023  -0.962  0.00  0.00    +0.000 C 
ATOM     22  N   UNL     1       1.754   1.501  -0.941  0.00  0.00    +0.000 N 
ATOM     23  H   UNL     1       2.723   1.829  -0.818  0.00  0.00    +0.000 HD
ENDBRANCH  14  16
ENDBRANCH  11  14
ENDBRANCH   4  11
BRANCH   1  24
ATOM     24  C   UNL     1       1.668   9.225  -3.603  0.00  0.00    +0.000 C 
BRANCH  24  25
ATOM     25  C   UNL     1       1.037  10.515  -4.128  0.00  0.00    +0.000 C 
BRANCH  25  27
ATOM     26  C   UNL     1       1.108  12.229  -5.945  0.00  0.00    +0.000 C 
ATOM     27  C   UNL     1       1.740  10.938  -5.420  0.00  0.00    +0.000 C 
ENDBRANCH  25  27
ENDBRANCH  24  25
ENDBRANCH   1  24
TORSDOF 6
ENDMDL
MODEL      469
REMARK  Name = ZINC22034900
REMARK  8 active torsions:
REMARK  status: ('A' for Active; 'I' for Inactive)
REMARK    1  A    between atoms: C_4  and  C_7
REMARK    2  A    between atoms: C_7  and  N_8
REMARK    3  A    between atoms: N_11  and  C_14
REMARK    4  A    between atoms: C_14  and  C_15
REMARK    5  A    between atoms: C_15  and  C_16
REMARK    6  A    between atoms: C_15  and  O_22
REMARK    7  A    between atoms: C_16  and  N_17
REMARK    8  A    between atoms: N_17  and  S_18
REMARK                            x       y       z     vdW  Elec       q    Type
REMARK                         _______ _______ _______ _____ _____    ______ ____
ROOT
ATOM      1  N   UNL     1      -0.629   2.821   1.391  0.00  0.00    +0.000 N 
ATOM      2  C   UNL     1      -0.617   1.354   1.309  0.00  0.00    +0.000 C 
ATOM      3  C   UNL     1       0.052   0.925   0.001  0.00  0.00    +0.000 C 
ATOM      4  N   UNL     1      -0.677   1.507  -1.134  0.00  0.00    +0.000 NA
ATOM      5  C   UNL     1      -0.689   2.974  -1.051  0.00  0.00    +0.000 C 
ATOM      6  C   UNL     1      -1.359   3.403   0.256  0.00  0.00    +0.000 C 
ATOM      7  H   UNL     1       0.345   3.150   1.345  0.00  0.00    +0.000 HD
ENDROOT
BRANCH   4   8
ATOM      8  C   UNL     1      -0.109   1.057  -2.412  0.00  0.00    +0.000 C 
BRANCH   8   9
ATOM      9  C   UNL     1       1.198   1.806  -2.682  0.00  0.00    +0.000 C 
BRANCH   9  10
ATOM     10  O   UNL     1       2.172   1.430  -1.706  0.00  0.00    +0.000 OA
ATOM     11  H   UNL     1       2.335   0.455  -1.760  0.00  0.00    +0.000 HD
ENDBRANCH   9  10
BRANCH   9  12
ATOM     12  C   UNL     1       1.710   1.450  -4.079  0.00  0.00    +0.000 C 
BRANCH  12  13
ATOM     13  N   UNL     1       2.961   2.168  -4.337  0.00  0.00    +0.000 NA
ATOM     14  H   UNL     1       3.236   2.958  -3.736  0.00  0.00    +0.000 HD
BRANCH  13  15
ATOM     15  S   UNL     1       3.935   1.708  -5.595  0.00  0.00    +0.000 S 
ATOM     16  O   UNL     1       5.041   2.600  -5.600  0.00  0.00    +0.000 OA
ATOM     17  O   UNL     1       4.093   0.299  -5.493  0.00  0.00    +0.000 OA
ATOM     18  O   UNL     1       3.161   1.967  -6.880  0.00  0.00    +0.000 OA
ENDBRANCH  13  15
ENDBRANCH  12  13
ENDBRANCH   9  12
ENDBRANCH   8   9
ENDBRANCH   4   8
BRANCH   1  19
ATOM     19  C   UNL     1      -1.197   3.271   2.669  0.00  0.00    +0.000 C 
BRANCH  19  23
ATOM     20  C   UNL     1       1.384   2.104   5.866  0.00  0.00    +0.000 A 
ATOM     21  C   UNL     1       1.560   3.328   5.247  0.00  0.00    +0.000 A 
ATOM     22  C   UNL     1       0.725   3.705   4.213  0.00  0.00    +0.000 A 
ATOM     23  C   UNL     1      -0.287   2.859   3.797  0.00  0.00    +0.000 A 
ATOM     24  C   UNL     1      -0.466   1.638   4.419  0.00  0.00    +0.000 A 
ATOM     25  C   UNL     1       0.373   1.258   5.450  0.00  0.00    +0.000 A 
ENDBRANCH  19  23
ENDBRANCH   1  19
TORSDOF 8
ENDMDL
MODEL      470
REMARK  Name = ZINC19483528
REMARK  10 active torsions:
REMARK  status: ('A' for Active; 'I' for Inactive)
REMARK    1  A    between atoms: C_1  and  O_2
REMARK    2  A    between atoms: O_2  and  C_3
REMARK    3  A    between atoms: C_6  and  C_11
REMARK    4  A    between atoms: C_8  and  O_9
REMARK    5  A    between atoms: O_9  and  C_10
REMARK    6  A    between atoms: C_11  and  S_12
REMARK    7  A    between atoms: S_12  and  C_13
REMARK    8  A    between atoms: C_13  and  C_14
REMARK    9  A    between atoms: C_14  and  C_15
REMARK   10  A    between atoms: C_14  and  N_18
REMARK                            x       y       z     vdW  Elec       q    Type
REMARK                         _______ _______ _______ _____ _____    ______ ____
ROOT
ATOM      1  C   UNK     1      -0.013   1.086   0.008  0.00  0.00    +0.000 C 
ENDROOT
BRANCH   1   5
ATOM      2  C   UNK     1      -2.011   2.470   3.526  0.00  0.00    +0.000 A 
ATOM      3  C   UNK     1      -1.006   3.232   2.952  0.00  0.00    +0.000 A 
ATOM      4  C   UNK     1      -0.359   2.779   1.817  0.00  0.00    +0.000 A 
ATOM      5  C   UNK     1      -0.718   1.572   1.248  0.00  0.00    +0.000 A 
ATOM      6  C   UNK     1      -1.719   0.807   1.817  0.00  0.00    +0.000 A 
ATOM      7  C   UNK     1      -2.369   1.252   2.957  0.00  0.00    +0.000 A 
BRANCH   2   9
ATOM      8  C   UNK     1      -2.226   4.171   5.175  0.00  0.00    +0.000 C 
ATOM      9  O   UNK     1      -2.646   2.912   4.645  0.00  0.00    +0.000 OA
ENDBRANCH   2   9
BRANCH   7  10
ATOM     10  O   UNK     1      -3.354   0.501   3.517  0.00  0.00    +0.000 OA
ATOM     11  C   UNK     1      -3.669  -0.738   2.877  0.00  0.00    +0.000 C 
ENDBRANCH   7  10
ENDBRANCH   1   5
BRANCH   1  12
ATOM     12  S   UNK     1      -0.890   1.687  -1.462  0.00  0.00    +0.000 S 
BRANCH  12  13
ATOM     13  C   UNK     1       0.072   1.024  -2.849  0.00  0.00    +0.000 C 
BRANCH  13  14
ATOM     14  C   UNK     1      -0.567   1.461  -4.168  0.00  0.00    +0.000 C 
BRANCH  14  15
ATOM     15  N   UNK     1      -1.942   0.951  -4.239  0.00  0.00    +0.000 N 
ATOM     16  H   UNK     1      -2.490   1.327  -3.451  0.00  0.00    +0.000 HD
ATOM     17  H   UNK     1      -1.931  -0.077  -4.188  0.00  0.00    +0.000 HD
ATOM     18  H   UNK     1      -2.373   1.245  -5.127  0.00  0.00    +0.000 HD
ENDBRANCH  14  15
BRANCH  14  19
ATOM     19  C   UNK     1       0.233   0.911  -5.321  0.00  0.00    +0.000 C 
ATOM     20  O   UNK     1      -0.145  -0.081  -5.899  0.00  0.00    +0.000 OA
ATOM     21  O   UNK     1       1.365   1.522  -5.705  0.00  0.00    +0.000 OA
ENDBRANCH  14  19
ENDBRANCH  13  14
ENDBRANCH  12  13
ENDBRANCH   1  12
TORSDOF 8
ENDMDL
MODEL      471
REMARK  Name = ZINC00481078
REMARK  9 active torsions:
REMARK  status: ('A' for Active; 'I' for Inactive)
REMARK    1  A    between atoms: C_1  and  C_2
REMARK    2  A    between atoms: C_2  and  O_3
REMARK    3  A    between atoms: O_3  and  C_4
REMARK    4  A    between atoms: C_7  and  C_9
REMARK    5  A    between atoms: N_11  and  C_17
REMARK    6  A    between atoms: C_17  and  C_18
REMARK    7  A    between atoms: C_18  and  N_21
REMARK    8  A    between atoms: C_19  and  N_21
REMARK    9  A    between atoms: C_20  and  N_21
REMARK                            x       y       z     vdW  Elec       q    Type
REMARK                         _______ _______ _______ _____ _____    ______ ____
ROOT
ATOM      1  C   UNL     1       1.637   1.397   4.113  0.00  0.00    +0.000 A 
ATOM      2  C   UNL     1       0.962   1.859   2.998  0.00  0.00    +0.000 A 
ATOM      3  N   UNL     1      -0.033   1.104   2.465  0.00  0.00    +0.000 N 
ATOM      4  C   UNL     1      -0.380  -0.078   2.998  0.00  0.00    +0.000 A 
ATOM      5  O   UNL     1      -1.282  -0.712   2.485  0.00  0.00    +0.000 OA
ATOM      6  N   UNL     1       0.239  -0.585   4.077  0.00  0.00    +0.000 N 
ATOM      7  C   UNL     1       1.240   0.096   4.674  0.00  0.00    +0.000 A 
ATOM      8  O   UNL     1       1.802  -0.356   5.654  0.00  0.00    +0.000 OA
ATOM      9  H   UNL     1      -0.051  -1.500   4.451  0.00  0.00    +0.000 HD
ENDROOT
BRANCH   1  13
ATOM     10  C   UNL     1       4.209   2.543   6.481  0.00  0.00    +0.000 C 
ATOM     11  O   UNL     1       4.522   3.613   5.998  0.00  0.00    +0.000 OA
ATOM     12  N   UNL     1       3.291   1.770   5.868  0.00  0.00    +0.000 N 
ATOM     13  C   UNL     1       2.720   2.184   4.720  0.00  0.00    +0.000 C 
ATOM     14  O   UNL     1       3.101   3.208   4.186  0.00  0.00    +0.000 OA
ATOM     15  H   UNL     1       3.026   0.863   6.278  0.00  0.00    +0.000 HD
BRANCH  10  16
ATOM     16  O   UNL     1       4.780   2.130   7.628  0.00  0.00    +0.000 OA
BRANCH  16  18
ATOM     17  C   UNL     1       6.295   2.381   9.518  0.00  0.00    +0.000 C 
ATOM     18  C   UNL     1       5.761   3.014   8.232  0.00  0.00    +0.000 C 
ENDBRANCH  16  18
ENDBRANCH  10  16
ENDBRANCH   1  13
BRANCH   3  19
ATOM     19  C   UNL     1      -0.748   1.594   1.284  0.00  0.00    +0.000 C 
BRANCH  19  20
ATOM     20  C   UNL     1      -0.040   1.106   0.019  0.00  0.00    +0.000 C 
BRANCH  20  23
ATOM     21  C   UNL     1       0.018   1.353  -2.389  0.00  0.00    +0.000 C 
ATOM     22  C   UNL     1      -2.093   0.996  -1.259  0.00  0.00    +0.000 C 
ATOM     23  N   UNL     1      -0.760   1.626  -1.162  0.00  0.00    +0.000 N 
ATOM     24  H   UNL     1      -0.878   2.644  -1.061  0.00  0.00    +0.000 HD
ENDBRANCH  20  23
ENDBRANCH  19  20
ENDBRANCH   3  19
TORSDOF 6
ENDMDL
MODEL      472
REMARK  Name = ZINC20213491
REMARK  9 active torsions:
REMARK  status: ('A' for Active; 'I' for Inactive)
REMARK    1  A    between atoms: C_1  and  N_2
REMARK    2  A    between atoms: N_2  and  C_3
REMARK    3  A    between atoms: N_2  and  C_4
REMARK    4  A    between atoms: C_4  and  C_5
REMARK    5  A    between atoms: C_5  and  C_6
REMARK    6  A    between atoms: C_6  and  N_7
REMARK    7  A    between atoms: N_7  and  S_8
REMARK    8  A    between atoms: S_8  and  C_11
REMARK    9  A    between atoms: CA_13  and  C_16
REMARK                            x       y       z     vdW  Elec       q    Type
REMARK                         _______ _______ _______ _____ _____    ______ ____
ROOT
ATOM      1  S   UNL     1      -1.456   1.774   0.019  0.00  0.00    +0.000 S 
ATOM      2  O   UNL     1      -2.475   0.784  -0.009  0.00  0.00    +0.000 OA
ATOM      3  O   UNL     1      -1.369   2.749   1.049  0.00  0.00    +0.000 OA
ENDROOT
BRANCH   1   4
ATOM      4  C   UNL     1      -1.571   2.658  -1.502  0.00  0.00    +0.000 A 
ATOM      5  C   UNL     1      -2.127   2.179  -2.692  0.00  0.00    +0.000 A 
ATOM      6  CA  UNL     1      -2.011   3.190  -3.625  0.00  0.00    +0.000 A 
ATOM      7  N   UNL     1      -1.397   4.255  -3.006  0.00  0.00    +0.000 N 
ATOM      8  C   UNL     1      -1.141   3.923  -1.723  0.00  0.00    +0.000 A 
ATOM      9  H   UNL     1      -1.170   5.157  -3.449  0.00  0.00    +0.000 HD
BRANCH   6  10
ATOM     10  C   UNL     1      -2.459   3.137  -5.019  0.00  0.00    +0.000 C 
ATOM     11  O   UNL     1      -2.991   2.132  -5.449  0.00  0.00    +0.000 OA
ATOM     12  OXT UNL     1      -2.282   4.205  -5.824  0.00  0.00    +0.000 OA
ENDBRANCH   6  10
ENDBRANCH   1   4
BRANCH   1  13
ATOM     13  N   UNL     1      -0.011   0.966   0.007  0.00  0.00    +0.000 NA
ATOM     14  H   UNL     1       0.003  -0.064   0.006  0.00  0.00    +0.000 HD
BRANCH  13  15
ATOM     15  C   UNL     1       1.248   1.716  -0.001  0.00  0.00    +0.000 C 
BRANCH  15  16
ATOM     16  C   UNL     1       2.402   0.777   0.357  0.00  0.00    +0.000 C 
BRANCH  16  17
ATOM     17  C   UNL     1       3.717   1.560   0.348  0.00  0.00    +0.000 C 
BRANCH  17  19
ATOM     18  C   UNL     1       6.122   1.311   0.464  0.00  0.00    +0.000 C 
ATOM     19  N   UNL     1       4.825   0.660   0.691  0.00  0.00    +0.000 N 
ATOM     20  C   UNL     1       4.709   0.186   2.077  0.00  0.00    +0.000 C 
ATOM     21  H   UNL     1       4.770  -0.161   0.071  0.00  0.00    +0.000 HD
ENDBRANCH  17  19
ENDBRANCH  16  17
ENDBRANCH  15  16
ENDBRANCH  13  15
ENDBRANCH   1  13
TORSDOF 7
ENDMDL
MODEL      473
REMARK  Name = ZINC32037257
REMARK  8 active torsions:
REMARK  status: ('A' for Active; 'I' for Inactive)
REMARK    1  A    between atoms: N_3  and  C_9
REMARK    2  A    between atoms: C_9  and  C_10
REMARK    3  A    between atoms: C_10  and  C_11
REMARK    4  A    between atoms: C_10  and  O_15
REMARK    5  A    between atoms: C_11  and  N_12
REMARK    6  A    between atoms: O_15  and  C_16
REMARK    7  A    between atoms: C_16  and  P_17
REMARK    8  A    between atoms: P_17  and  O_20
REMARK                            x       y       z     vdW  Elec       q    Type
REMARK                         _______ _______ _______ _____ _____    ______ ____
ROOT
ATOM      1  C   UNL     1      -1.897   0.852   1.471  0.00  0.00    +0.000 C 
ENDROOT
BRANCH   1   2
ATOM      2  C   UNL     1      -2.865   1.794   2.191  0.00  0.00    +0.000 C 
BRANCH   2   5
ATOM      3  C   UNL     1      -4.677   3.763  -0.345  0.00  0.00    +0.000 A 
ATOM      4  C   UNL     1      -4.335   2.748   0.483  0.00  0.00    +0.000 A 
ATOM      5  N   UNL     1      -3.245   2.884   1.290  0.00  0.00    +0.000 N 
ATOM      6  C   UNL     1      -2.520   4.018   1.267  0.00  0.00    +0.000 A 
ATOM      7  O   UNL     1      -1.551   4.124   2.000  0.00  0.00    +0.000 OA
ATOM      8  N   UNL     1      -2.841   5.023   0.454  0.00  0.00    +0.000 NA
ATOM      9  C   UNL     1      -3.893   4.935  -0.349  0.00  0.00    +0.000 A 
ATOM     10  N   UNL     1      -4.218   5.982  -1.180  0.00  0.00    +0.000 N 
ATOM     11  H   UNL     1      -5.036   5.908  -1.802  0.00  0.00    +0.000 HD
ATOM     12  H   UNL     1      -3.645   6.837  -1.182  0.00  0.00    +0.000 HD
ENDBRANCH   2   5
ENDBRANCH   1   2
BRANCH   1  13
ATOM     13  C   UNL     1      -1.597  -0.352   2.366  0.00  0.00    +0.000 C 
BRANCH  13  14
ATOM     14  N   UNL     1      -0.670  -1.254   1.677  0.00  0.00    +0.000 NA
ATOM     15  N   UNL     1       0.331  -1.487   2.133  0.00  0.00    +0.000 NA
ATOM     16  N   UNL     1       1.332  -1.720   2.588  0.00  0.00    +0.000 NA
ENDBRANCH  13  14
ENDBRANCH   1  13
BRANCH   1  17
ATOM     17  O   UNL     1      -0.682   1.547   1.184  0.00  0.00    +0.000 OA
BRANCH  17  18
ATOM     18  C   UNL     1      -0.013   1.086   0.008  0.00  0.00    +0.000 C 
BRANCH  18  19
ATOM     19  P   UNL     1      -0.894   1.690  -1.469  0.00  0.00    +0.000 P 
ATOM     20  O   UNL     1      -0.914   3.170  -1.461  0.00  0.00    +0.000 OA
ATOM     21  O   UNL     1      -0.141   1.171  -2.793  0.00  0.00    +0.000 OA
BRANCH  19  22
ATOM     22  O   UNL     1      -2.405   1.133  -1.458  0.00  0.00    +0.000 OA
ATOM     23  H   UNL     1      -2.869   1.452  -0.643  0.00  0.00    +0.000 HD
ENDBRANCH  19  22
ENDBRANCH  18  19
ENDBRANCH  17  18
ENDBRANCH   1  17
TORSDOF 8
ENDMDL
MODEL      474
REMARK  Name = ZINC05251297
REMARK  11 active torsions:
REMARK  status: ('A' for Active; 'I' for Inactive)
REMARK    1  A    between atoms: C_1  and  N_21
REMARK    2  A    between atoms: C_2  and  N_21
REMARK    3  A    between atoms: C_3  and  C_4
REMARK    4  A    between atoms: C_3  and  N_21
REMARK    5  A    between atoms: C_4  and  N_5
REMARK    6  A    between atoms: C_6  and  C_8
REMARK    7  A    between atoms: N_10  and  C_11
REMARK    8  A    between atoms: C_14  and  O_19
REMARK    9  A    between atoms: C_15  and  O_17
REMARK   10  A    between atoms: O_17  and  C_18
REMARK   11  A    between atoms: O_19  and  C_20
REMARK                            x       y       z     vdW  Elec       q    Type
REMARK                         _______ _______ _______ _____ _____    ______ ____
ROOT
ATOM      1  C   UNL     1      -0.024   1.502  -0.156  0.00  0.00    +0.000 C 
ATOM      2  O   UNL     1       1.000   2.135  -0.314  0.00  0.00    +0.000 OA
ATOM      3  N   UNL     1      -1.194   2.147   0.019  0.00  0.00    +0.000 N 
ATOM      4  H   UNL     1      -2.074   1.613   0.070  0.00  0.00    +0.000 HD
ENDROOT
BRANCH   3   5
ATOM      5  C   UNL     1      -1.215   3.541   0.133  0.00  0.00    +0.000 A 
ATOM      6  C   UNL     1      -0.158   4.204   0.743  0.00  0.00    +0.000 A 
ATOM      7  C   UNL     1      -0.174   5.581   0.851  0.00  0.00    +0.000 A 
ATOM      8  C   UNL     1      -1.251   6.303   0.361  0.00  0.00    +0.000 A 
ATOM      9  C   UNL     1      -2.314   5.641  -0.246  0.00  0.00    +0.000 A 
ATOM     10  C   UNL     1      -2.295   4.262  -0.360  0.00  0.00    +0.000 A 
BRANCH   9  11
ATOM     11  O   UNL     1      -3.371   6.349  -0.728  0.00  0.00    +0.000 OA
ATOM     12  C   UNL     1      -4.426   5.605  -1.339  0.00  0.00    +0.000 C 
ENDBRANCH   9  11
BRANCH   8  13
ATOM     13  O   UNL     1      -1.268   7.659   0.473  0.00  0.00    +0.000 OA
ATOM     14  C   UNL     1      -0.144   8.272   1.107  0.00  0.00    +0.000 C 
ENDBRANCH   8  13
ENDBRANCH   3   5
BRANCH   1  16
ATOM     15  N   UNL     1       1.183  -0.635  -0.343  0.00  0.00    +0.000 N 
ATOM     16  C   UNL     1       0.013   0.010  -0.162  0.00  0.00    +0.000 C 
ATOM     17  O   UNL     1      -1.010  -0.623  -0.004  0.00  0.00    +0.000 OA
ATOM     18  H   UNL     1       2.051  -0.098  -0.477  0.00  0.00    +0.000 HD
BRANCH  15  19
ATOM     19  C   UNL     1       1.219  -2.099  -0.349  0.00  0.00    +0.000 C 
BRANCH  19  20
ATOM     20  C   UNL     1       2.656  -2.573  -0.571  0.00  0.00    +0.000 C 
BRANCH  20  23
ATOM     21  C   UNL     1       4.004  -4.534  -1.021  0.00  0.00    +0.000 C 
ATOM     22  C   UNL     1       2.347  -4.582   0.744  0.00  0.00    +0.000 C 
ATOM     23  N   UNL     1       2.673  -4.051  -0.596  0.00  0.00    +0.000 N 
ATOM     24  H   UNL     1       1.966  -4.382  -1.268  0.00  0.00    +0.000 HD
ENDBRANCH  20  23
ENDBRANCH  19  20
ENDBRANCH  15  19
ENDBRANCH   1  16
TORSDOF 7
ENDMDL
MODEL      475
REMARK  Name = ZINC04839229
REMARK  8 active torsions:
REMARK  status: ('A' for Active; 'I' for Inactive)
REMARK    1  A    between atoms: C_1  and  O_2
REMARK    2  A    between atoms: O_2  and  C_3
REMARK    3  A    between atoms: C_3  and  C_4
REMARK    4  A    between atoms: C_4  and  C_5
REMARK    5  A    between atoms: C_5  and  N_6
REMARK    6  A    between atoms: N_6  and  C_7
REMARK    7  A    between atoms: C_10  and  N_20
REMARK    8  A    between atoms: C_12  and  C_13
REMARK                            x       y       z     vdW  Elec       q    Type
REMARK                         _______ _______ _______ _____ _____    ______ ____
ROOT
ATOM      1  C   UNL     1      -0.194   1.225   2.488  0.00  0.00    +0.000 A 
ATOM      2  C   UNL     1       0.890   0.365   2.618  0.00  0.00    +0.000 A 
ATOM      3  C   UNL     1       1.373   0.047   3.870  0.00  0.00    +0.000 A 
ATOM      4  C   UNL     1       0.784   0.580   5.006  0.00  0.00    +0.000 A 
ATOM      5  C   UNL     1      -0.291   1.435   4.897  0.00  0.00    +0.000 A 
ATOM      6  C   UNL     1      -0.789   1.770   3.635  0.00  0.00    +0.000 A 
ENDROOT
BRANCH   6   7
ATOM      7  C   UNL     1      -1.936   2.689   3.511  0.00  0.00    +0.000 C 
ATOM      8  O   UNL     1      -1.844   3.686   2.821  0.00  0.00    +0.000 OA
ATOM      9  N   UNL     1      -3.085   2.424   4.163  0.00  0.00    +0.000 N 
ATOM     10  C   UNL     1      -3.190   1.272   5.071  0.00  0.00    +0.000 C 
ATOM     11  C   UNL     1      -4.426   0.458   4.693  0.00  0.00    +0.000 C 
ATOM     12  C   UNL     1      -5.466   2.379   3.639  0.00  0.00    +0.000 C 
ATOM     13  C   UNL     1      -4.271   3.275   3.979  0.00  0.00    +0.000 C 
ATOM     14  N   UNL     1      -5.612   1.337   4.675  0.00  0.00    +0.000 N 
ATOM     15  H   UNL     1      -6.451   0.774   4.475  0.00  0.00    +0.000 HD
ATOM     16  H   UNL     1      -5.719   1.786   5.595  0.00  0.00    +0.000 HD
ENDBRANCH   6   7
BRANCH   4  17
ATOM     17  N   UNL     1       1.313   0.230   6.344  0.00  0.00    +0.000 N 
ATOM     18  O   UNL     1       2.264  -0.525   6.444  0.00  0.00    +0.000 OA
ATOM     19  O   UNL     1       0.798   0.697   7.344  0.00  0.00    +0.000 OA
ENDBRANCH   4  17
BRANCH   1  20
ATOM     20  N   UNL     1      -0.681   1.547   1.228  0.00  0.00    +0.000 N 
ATOM     21  H   UNL     1      -1.531   2.122   1.136  0.00  0.00    +0.000 HD
BRANCH  20  22
ATOM     22  C   UNL     1       0.013   1.071   0.029  0.00  0.00    +0.000 C 
BRANCH  22  23
ATOM     23  C   UNL     1      -0.725   1.563  -1.217  0.00  0.00    +0.000 C 
BRANCH  23  24
ATOM     24  C   UNL     1       0.001   1.065  -2.469  0.00  0.00    +0.000 C 
BRANCH  24  26
ATOM     25  C   UNL     1      -0.089   1.112  -4.864  0.00  0.00    +0.000 C 
ATOM     26  O   UNL     1      -0.688   1.524  -3.633  0.00  0.00    +0.000 OA
ENDBRANCH  24  26
ENDBRANCH  23  24
ENDBRANCH  22  23
ENDBRANCH  20  22
ENDBRANCH   1  20
TORSDOF 7
ENDMDL
MODEL      476
REMARK  Name = ZINC28185584
REMARK  11 active torsions:
REMARK  status: ('A' for Active; 'I' for Inactive)
REMARK    1  A    between atoms: C_1  and  C_2
REMARK    2  A    between atoms: C_3  and  O_20
REMARK    3  A    between atoms: C_4  and  C_10
REMARK    4  A    between atoms: C_5  and  C_8
REMARK    5  A    between atoms: C_8  and  O_9
REMARK    6  A    between atoms: N_11  and  C_12
REMARK    7  A    between atoms: C_12  and  C_13
REMARK    8  A    between atoms: C_13  and  C_14
REMARK    9  A    between atoms: C_14  and  N_15
REMARK   10  A    between atoms: N_15  and  S_16
REMARK   11  A    between atoms: S_16  and  C_19
REMARK                            x       y       z     vdW  Elec       q    Type
REMARK                         _______ _______ _______ _____ _____    ______ ____
ROOT
ATOM      1  C   UNL     1       1.267  -2.163  -0.021  0.00  0.00    +0.000 C 
ATOM      2  C   UNL     1       1.227  -0.657  -0.013  0.00  0.00    +0.000 A 
ATOM      3  C   UNL     1       0.002  -0.004   0.002  0.00  0.00    +0.000 A 
ATOM      4  C   UNL     1      -0.017   1.400   0.010  0.00  0.00    +0.000 A 
ATOM      5  C   UNL     1       1.209   2.076   0.002  0.00  0.00    +0.000 A 
ATOM      6  C   UNL     1       2.378   1.343  -0.013  0.00  0.00    +0.000 A 
ATOM      7  N   UNL     1       2.354   0.024  -0.020  0.00  0.00    +0.000 NA
ENDROOT
BRANCH   4   8
ATOM      8  C   UNL     1      -1.293   2.142   0.020  0.00  0.00    +0.000 C 
ATOM      9  N   UNL     1      -2.415   1.499   0.022  0.00  0.00    +0.000 NA
BRANCH   9  10
ATOM     10  C   UNL     1      -3.681   2.236   0.032  0.00  0.00    +0.000 C 
BRANCH  10  11
ATOM     11  C   UNL     1      -4.435   1.972  -1.273  0.00  0.00    +0.000 C 
BRANCH  11  12
ATOM     12  C   UNL     1      -5.757   2.742  -1.263  0.00  0.00    +0.000 C 
BRANCH  12  13
ATOM     13  N   UNL     1      -6.479   2.490  -2.513  0.00  0.00    +0.000 NA
ATOM     14  H   UNL     1      -5.988   2.070  -3.315  0.00  0.00    +0.000 HD
BRANCH  13  15
ATOM     15  S   UNL     1      -8.084   2.878  -2.635  0.00  0.00    +0.000 S 
ATOM     16  O   UNL     1      -8.454   2.482  -3.948  0.00  0.00    +0.000 OA
ATOM     17  O   UNL     1      -8.690   2.278  -1.499  0.00  0.00    +0.000 OA
ATOM     18  C   UNL     1      -8.138   4.686  -2.490  0.00  0.00    +0.000 C 
ENDBRANCH  13  15
ENDBRANCH  12  13
ENDBRANCH  11  12
ENDBRANCH  10  11
ENDBRANCH   9  10
ENDBRANCH   4   8
BRANCH   3  19
ATOM     19  O   UNL     1      -1.157  -0.710   0.009  0.00  0.00    +0.000 OA
ATOM     20  H   UNL     1      -1.086  -1.301   0.800  0.00  0.00    +0.000 HD
ENDBRANCH   3  19
BRANCH   5  21
ATOM     21  C   UNL     1       1.252   3.582   0.009  0.00  0.00    +0.000 C 
BRANCH  21  22
ATOM     22  O   UNL     1       2.612   4.020  -0.002  0.00  0.00    +0.000 OA
ATOM     23  H   UNL     1       3.063   3.682  -0.816  0.00  0.00    +0.000 HD
ENDBRANCH  21  22
ENDBRANCH   5  21
TORSDOF 9
ENDMDL
MODEL      477
REMARK  Name = ZINC26693353
REMARK  10 active torsions:
REMARK  status: ('A' for Active; 'I' for Inactive)
REMARK    1  A    between atoms: C_1  and  C_2
REMARK    2  A    between atoms: C_2  and  C_3
REMARK    3  A    between atoms: C_2  and  C_4
REMARK    4  A    between atoms: C_2  and  N_19
REMARK    5  A    between atoms: C_4  and  N_5
REMARK    6  A    between atoms: C_9  and  N_16
REMARK    7  A    between atoms: C_10  and  N_12
REMARK    8  A    between atoms: N_12  and  C_13
REMARK    9  A    between atoms: N_19  and  C_20
REMARK   10  A    between atoms: N_19  and  C_21
REMARK                            x       y       z     vdW  Elec       q    Type
REMARK                         _______ _______ _______ _____ _____    ______ ____
ROOT
ATOM      1  N   UNL     1       3.626   1.825  -0.043  0.00  0.00    +0.000 N 
ATOM      2  C   UNL     1       2.364   1.258  -0.023  0.00  0.00    +0.000 A 
ATOM      3  N   UNL     1       2.249  -0.062  -0.040  0.00  0.00    +0.000 NA
ATOM      4  C   UNL     1       1.058  -0.642  -0.022  0.00  0.00    +0.000 A 
ATOM      5  C   UNL     1      -0.077   0.144   0.014  0.00  0.00    +0.000 A 
ATOM      6  C   UNL     1       0.075   1.532   0.031  0.00  0.00    +0.000 A 
ATOM      7  N   UNL     1       1.301   2.047   0.012  0.00  0.00    +0.000 NA
ATOM      8  H   UNL     1       3.729   2.850  -0.030  0.00  0.00    +0.000 HD
ENDROOT
BRANCH   5   9
ATOM      9  N   UNL     1      -1.424  -0.470   0.035  0.00  0.00    +0.000 N 
ATOM     10  O   UNL     1      -1.540  -1.679   0.125  0.00  0.00    +0.000 OA
ATOM     11  O   UNL     1      -2.415   0.234  -0.036  0.00  0.00    +0.000 OA
ENDBRANCH   5   9
BRANCH   6  12
ATOM     12  N   UNL     1      -1.034   2.361   0.062  0.00  0.00    +0.000 N 
ATOM     13  H   UNL     1      -1.980   1.959  -0.012  0.00  0.00    +0.000 HD
BRANCH  12  14
ATOM     14  C   UNL     1      -0.864   3.809   0.201  0.00  0.00    +0.000 C 
ATOM     15  C   UNL     1      -1.792   4.540   1.174  0.00  0.00    +0.000 C 
ATOM     16  C   UNL     1      -1.980   4.707  -0.336  0.00  0.00    +0.000 C 
ENDBRANCH  12  14
ENDBRANCH   6  12
BRANCH   1  17
ATOM     17  C   UNL     1       4.814   0.969  -0.082  0.00  0.00    +0.000 C 
BRANCH  17  19
ATOM     18  C   UNL     1       7.311   0.946  -0.137  0.00  0.00    +0.000 C 
ATOM     19  C   UNL     1       6.071   1.841  -0.096  0.00  0.00    +0.000 C 
ATOM     20  C   UNL     1       6.051   2.742  -1.332  0.00  0.00    +0.000 C 
BRANCH  19  21
ATOM     21  N   UNL     1       6.105   2.671   1.115  0.00  0.00    +0.000 N 
ATOM     22  C   UNL     1       6.030   1.841   2.325  0.00  0.00    +0.000 C 
ATOM     23  C   UNL     1       7.301   3.524   1.135  0.00  0.00    +0.000 C 
ATOM     24  H   UNL     1       5.278   3.286   1.101  0.00  0.00    +0.000 HD
ENDBRANCH  19  21
ENDBRANCH  17  19
ENDBRANCH   1  17
TORSDOF 6
ENDMDL
MODEL      478
REMARK  Name = ZINC28285391
REMARK  9 active torsions:
REMARK  status: ('A' for Active; 'I' for Inactive)
REMARK    1  A    between atoms: C_1  and  C_2
REMARK    2  A    between atoms: C_2  and  N_3
REMARK    3  A    between atoms: C_7  and  N_10
REMARK    4  A    between atoms: N_10  and  C_11
REMARK    5  A    between atoms: C_11  and  C_12
REMARK    6  A    between atoms: C_12  and  N_13
REMARK    7  A    between atoms: N_13  and  C_14
REMARK    8  A    between atoms: N_18  and  C_21
REMARK    9  A    between atoms: C_21  and  C_22
REMARK                            x       y       z     vdW  Elec       q    Type
REMARK                         _______ _______ _______ _____ _____    ______ ____
ROOT
ATOM      1  C   UNL     1       1.004  -3.364  -2.662  0.00  0.00    +0.000 C 
ENDROOT
BRANCH   1   2
ATOM      2  N   UNL     1       1.237  -2.832  -1.313  0.00  0.00    +0.000 N 
ATOM      3  H   UNL     1       1.998  -2.139  -1.348  0.00  0.00    +0.000 HD
ATOM      4  H   UNL     1       1.519  -3.602  -0.689  0.00  0.00    +0.000 HD
BRANCH   2   9
ATOM      5  N   UNL     1       0.002  -0.004   0.002  0.00  0.00    +0.000 N 
ATOM      6  C   UNL     1       0.022  -0.735   1.124  0.00  0.00    +0.000 C 
ATOM      7  O   UNL     1       0.027  -0.290   2.251  0.00  0.00    +0.000 OA
ATOM      8  C   UNL     1       0.039  -2.203   0.761  0.00  0.00    +0.000 C 
ATOM      9  C   UNL     1       0.025  -2.195  -0.781  0.00  0.00    +0.000 C 
ATOM     10  C   UNL     1      -0.004  -0.723  -1.128  0.00  0.00    +0.000 C 
ATOM     11  O   UNL     1      -0.026  -0.266  -2.250  0.00  0.00    +0.000 OA
BRANCH   5  13
ATOM     12  C   UNL     1       1.418   1.990  -0.001  0.00  0.00    +0.000 C 
ATOM     13  C   UNL     1      -0.018   1.461   0.010  0.00  0.00    +0.000 C 
ENDBRANCH   5  13
ENDBRANCH   2   9
ENDBRANCH   1   2
BRANCH   1  14
ATOM     14  C   UNL     1       2.286  -4.018  -3.181  0.00  0.00    +0.000 C 
BRANCH  14  15
ATOM     15  N   UNL     1       2.053  -4.550  -4.530  0.00  0.00    +0.000 NA
ATOM     16  H   UNL     1       1.772  -3.781  -5.156  0.00  0.00    +0.000 HD
BRANCH  15  17
ATOM     17  C   UNL     1       3.265  -5.187  -5.062  0.00  0.00    +0.000 C 
ATOM     18  C   UNL     1       3.226  -5.227  -6.603  0.00  0.00    +0.000 C 
ATOM     19  C   UNL     1       3.257  -6.710  -6.917  0.00  0.00    +0.000 C 
ATOM     20  O   UNL     1       3.239  -7.193  -8.029  0.00  0.00    +0.000 OA
ATOM     21  N   UNL     1       3.307  -7.402  -5.772  0.00  0.00    +0.000 N 
ATOM     22  C   UNL     1       3.316  -6.647  -4.667  0.00  0.00    +0.000 C 
ATOM     23  O   UNL     1       3.359  -7.066  -3.530  0.00  0.00    +0.000 OA
BRANCH  21  24
ATOM     24  C   UNL     1       3.349  -8.866  -5.732  0.00  0.00    +0.000 C 
ATOM     25  C   UNL     1       1.922  -9.416  -5.679  0.00  0.00    +0.000 C 
ENDBRANCH  21  24
ENDBRANCH  15  17
ENDBRANCH  14  15
ENDBRANCH   1  14
TORSDOF 7
ENDMDL
MODEL      479
REMARK  Name = ZINC21018929
REMARK  10 active torsions:
REMARK  status: ('A' for Active; 'I' for Inactive)
REMARK    1  A    between atoms: C_1  and  C_2
REMARK    2  A    between atoms: C_5  and  C_11
REMARK    3  A    between atoms: C_7  and  N_8
REMARK    4  A    between atoms: C_11  and  C_12
REMARK    5  A    between atoms: C_11  and  N_13
REMARK    6  A    between atoms: N_13  and  C_14
REMARK    7  A    between atoms: C_14  and  C_15
REMARK    8  A    between atoms: C_15  and  N_16
REMARK    9  A    between atoms: N_16  and  S_17
REMARK   10  A    between atoms: S_17  and  C_20
REMARK                            x       y       z     vdW  Elec       q    Type
REMARK                         _______ _______ _______ _____ _____    ______ ____
ROOT
ATOM      1  C   UNL     1       3.666   2.189  -0.107  0.00  0.00    +0.000 C 
ATOM      2  C   UNL     1       4.123   2.515   1.317  0.00  0.00    +0.000 C 
ENDROOT
BRANCH   1   7
ATOM      3  C   UNL     1      -1.286  -0.783   0.095  0.00  0.00    +0.000 C 
ATOM      4  C   UNL     1       0.005  -0.008   0.042  0.00  0.00    +0.000 A 
ATOM      5  C   UNL     1       1.208  -0.653   0.261  0.00  0.00    +0.000 A 
ATOM      6  C   UNL     1       2.392   0.058   0.213  0.00  0.00    +0.000 A 
ATOM      7  C   UNL     1       2.374   1.414  -0.054  0.00  0.00    +0.000 A 
ATOM      8  C   UNL     1       1.172   2.059  -0.273  0.00  0.00    +0.000 A 
ATOM      9  C   UNL     1      -0.013   1.348  -0.225  0.00  0.00    +0.000 A 
BRANCH   9  10
ATOM     10  N   UNL     1      -1.300   2.038  -0.466  0.00  0.00    +0.000 N 
ATOM     11  O   UNL     1      -1.328   3.249  -0.590  0.00  0.00    +0.000 OA
ATOM     12  O   UNL     1      -2.332   1.394  -0.539  0.00  0.00    +0.000 OA
ENDBRANCH   9  10
ENDBRANCH   1   7
BRANCH   1  13
ATOM     13  N   UNL     1       4.694   1.383  -0.779  0.00  0.00    +0.000 N 
ATOM     14  H   UNL     1       5.131   0.750  -0.094  0.00  0.00    +0.000 HD
ATOM     15  H   UNL     1       4.253   0.818  -1.519  0.00  0.00    +0.000 HD
BRANCH  13  16
ATOM     16  C   UNL     1       5.728   2.239  -1.375  0.00  0.00    +0.000 C 
BRANCH  16  17
ATOM     17  C   UNL     1       6.778   1.366  -2.064  0.00  0.00    +0.000 C 
BRANCH  17  18
ATOM     18  N   UNL     1       7.810   2.220  -2.658  0.00  0.00    +0.000 NA
ATOM     19  H   UNL     1       7.638   3.229  -2.775  0.00  0.00    +0.000 HD
BRANCH  18  20
ATOM     20  S   UNL     1       9.251   1.563  -3.141  0.00  0.00    +0.000 S 
ATOM     21  O   UNL     1      10.003   2.663  -3.636  0.00  0.00    +0.000 OA
ATOM     22  O   UNL     1       9.707   0.822  -2.018  0.00  0.00    +0.000 OA
ATOM     23  C   UNL     1       8.820   0.440  -4.498  0.00  0.00    +0.000 C 
ENDBRANCH  18  20
ENDBRANCH  17  18
ENDBRANCH  16  17
ENDBRANCH  13  16
ENDBRANCH   1  13
TORSDOF 7
ENDMDL
MODEL      480
REMARK  Name = ZINC28069362
REMARK  7 active torsions:
REMARK  status: ('A' for Active; 'I' for Inactive)
REMARK    1  A    between atoms: C_1  and  C_2
REMARK    2  A    between atoms: N_5  and  C_8
REMARK    3  A    between atoms: C_8  and  C_9
REMARK    4  A    between atoms: C_9  and  C_10
REMARK    5  A    between atoms: C_10  and  N_11
REMARK    6  A    between atoms: C_12  and  C_14
REMARK    7  A    between atoms: C_16  and  N_21
REMARK                            x       y       z     vdW  Elec       q    Type
REMARK                         _______ _______ _______ _____ _____    ______ ____
ROOT
ATOM      1  N   UNL     1       4.811  -0.113  -0.045  0.00  0.00    +0.000 N 
ATOM      2  C   UNL     1       3.634  -0.770  -0.037  0.00  0.00    +0.000 C 
ATOM      3  O   UNL     1       3.616  -1.986  -0.043  0.00  0.00    +0.000 OA
ATOM      4  H   UNL     1       4.825   0.916  -0.040  0.00  0.00    +0.000 HD
ENDROOT
BRANCH   2   5
ATOM      5  C   UNL     1       2.367  -0.015  -0.021  0.00  0.00    +0.000 A 
ATOM      6  C   UNL     1       2.373   1.385  -0.013  0.00  0.00    +0.000 A 
ATOM      7  C   UNL     1       1.158   2.047   0.002  0.00  0.00    +0.000 A 
ATOM      8  C   UNL     1      -0.016   1.315   0.009  0.00  0.00    +0.000 A 
ATOM      9  N   UNL     1       0.002  -0.004   0.002  0.00  0.00    +0.000 N 
ATOM     10  C   UNL     1       1.135  -0.685  -0.013  0.00  0.00    +0.000 A 
ATOM     11  O   UNL     1       1.106  -2.039  -0.020  0.00  0.00    +0.000 OA
ATOM     12  H   UNL     1      -0.891  -0.517   0.008  0.00  0.00    +0.000 HD
BRANCH   7  13
ATOM     13  N   UNL     1       1.114   3.527   0.010  0.00  0.00    +0.000 N 
ATOM     14  O   UNL     1       0.042   4.104   0.024  0.00  0.00    +0.000 OA
ATOM     15  O   UNL     1       2.151   4.167   0.004  0.00  0.00    +0.000 OA
ENDBRANCH   7  13
ENDBRANCH   2   5
BRANCH   1  16
ATOM     16  C   UNL     1       6.069  -0.864  -0.061  0.00  0.00    +0.000 C 
BRANCH  16  17
ATOM     17  C   UNL     1       7.246   0.113  -0.068  0.00  0.00    +0.000 C 
BRANCH  17  18
ATOM     18  C   UNL     1       8.559  -0.671  -0.085  0.00  0.00    +0.000 C 
BRANCH  18  23
ATOM     19  C   UNL     1      13.261   2.484  -0.866  0.00  0.00    +0.000 C 
ATOM     20  C   UNL     1      12.170   1.423  -1.016  0.00  0.00    +0.000 C 
ATOM     21  C   UNL     1      12.093   0.584   0.263  0.00  0.00    +0.000 C 
ATOM     22  C   UNL     1      10.959  -0.436   0.131  0.00  0.00    +0.000 C 
ATOM     23  N   UNL     1       9.690   0.268  -0.091  0.00  0.00    +0.000 N 
ATOM     24  C   UNL     1       9.723   1.043  -1.338  0.00  0.00    +0.000 C 
ATOM     25  C   UNL     1      10.820   2.107  -1.250  0.00  0.00    +0.000 C 
ATOM     26  H   UNL     1       9.557   0.930   0.687  0.00  0.00    +0.000 HD
ENDBRANCH  18  23
ENDBRANCH  17  18
ENDBRANCH  16  17
ENDBRANCH   1  16
TORSDOF 6
ENDMDL
MODEL      481
REMARK  Name = ZINC15937138
REMARK  9 active torsions:
REMARK  status: ('A' for Active; 'I' for Inactive)
REMARK    1  A    between atoms: C_1  and  C_2
REMARK    2  A    between atoms: C_2  and  N_3
REMARK    3  A    between atoms: C_5  and  C_9
REMARK    4  A    between atoms: C_6  and  C_8
REMARK    5  A    between atoms: C_13  and  S_15
REMARK    6  A    between atoms: S_15  and  C_16
REMARK    7  A    between atoms: C_16  and  C_17
REMARK    8  A    between atoms: C_17  and  C_18
REMARK    9  A    between atoms: C_17  and  N_21
REMARK                            x       y       z     vdW  Elec       q    Type
REMARK                         _______ _______ _______ _____ _____    ______ ____
ROOT
ATOM      1  C   UNK     1       2.389   0.098  -0.020  0.00  0.00    +0.000 A 
ATOM      2  C   UNK     1       1.216  -0.664  -0.013  0.00  0.00    +0.000 A 
ATOM      3  C   UNK     1       0.002  -0.004   0.002  0.00  0.00    +0.000 A 
ATOM      4  N   UNK     1      -0.016   1.320   0.009  0.00  0.00    +0.000 NA
ATOM      5  C   UNK     1       1.111   2.018   0.002  0.00  0.00    +0.000 A 
ATOM      6  N   UNK     1       2.296   1.425  -0.012  0.00  0.00    +0.000 NA
ENDROOT
BRANCH   1   9
ATOM      7  N   UNK     1       5.281  -2.093  -0.059  0.00  0.00    +0.000 N 
ATOM      8  C   UNK     1       3.948  -1.909  -0.045  0.00  0.00    +0.000 A 
ATOM      9  C   UNK     1       3.716  -0.563  -0.036  0.00  0.00    +0.000 A 
ATOM     10  C   UNK     1       4.969   0.083  -0.050  0.00  0.00    +0.000 A 
ATOM     11  N   UNK     1       5.897  -0.836  -0.057  0.00  0.00    +0.000 NA
ATOM     12  C   UNK     1       5.197   1.572  -0.052  0.00  0.00    +0.000 C 
BRANCH   7  14
ATOM     13  C   UNK     1       6.928  -3.442  -1.262  0.00  0.00    +0.000 C 
ATOM     14  C   UNK     1       5.970  -3.386  -0.071  0.00  0.00    +0.000 C 
ENDBRANCH   7  14
ENDBRANCH   1   9
BRANCH   5  15
ATOM     15  S   UNK     1       1.031   3.778   0.013  0.00  0.00    +0.000 S 
BRANCH  15  16
ATOM     16  C   UNK     1      -0.763   4.011   0.031  0.00  0.00    +0.000 C 
BRANCH  16  17
ATOM     17  C   UNK     1      -1.083   5.507   0.042  0.00  0.00    +0.000 C 
BRANCH  17  18
ATOM     18  N   UNK     1      -0.505   6.148   1.236  0.00  0.00    +0.000 N 
ATOM     19  H   UNK     1       0.516   6.015   1.229  0.00  0.00    +0.000 HD
ATOM     20  H   UNK     1      -0.898   5.706   2.079  0.00  0.00    +0.000 HD
ATOM     21  H   UNK     1      -0.725   7.154   1.236  0.00  0.00    +0.000 HD
ENDBRANCH  17  18
BRANCH  17  22
ATOM     22  C   UNK     1      -2.578   5.701   0.057  0.00  0.00    +0.000 C 
ATOM     23  O   UNK     1      -3.144   5.954   1.095  0.00  0.00    +0.000 OA
ATOM     24  O   UNK     1      -3.280   5.594  -1.081  0.00  0.00    +0.000 OA
ENDBRANCH  17  22
ENDBRANCH  16  17
ENDBRANCH  15  16
ENDBRANCH   5  15
TORSDOF 7
ENDMDL
MODEL      482
REMARK  Name = ZINC04650547
REMARK  9 active torsions:
REMARK  status: ('A' for Active; 'I' for Inactive)
REMARK    1  A    between atoms: C_1  and  C_2
REMARK    2  A    between atoms: C_2  and  O_3
REMARK    3  A    between atoms: C_5  and  C_16
REMARK    4  A    between atoms: N_6  and  C_11
REMARK    5  A    between atoms: C_11  and  C_12
REMARK    6  A    between atoms: C_12  and  N_22
REMARK    7  A    between atoms: C_13  and  C_14
REMARK    8  A    between atoms: C_13  and  N_22
REMARK    9  A    between atoms: C_14  and  O_15
REMARK                            x       y       z     vdW  Elec       q    Type
REMARK                         _______ _______ _______ _____ _____    ______ ____
ROOT
ATOM      1  C   UNL     1      -2.717   4.768  -1.156  0.00  0.00    +0.000 C 
ATOM      2  C   UNL     1      -1.409   4.025  -1.240  0.00  0.00    +0.000 C 
ATOM      3  C   UNL     1      -0.805   3.420   0.001  0.00  0.00    +0.000 C 
ATOM      4  C   UNL     1       0.729   3.396  -0.105  0.00  0.00    +0.000 C 
ATOM      5  N   UNL     1      -0.766   1.050   0.428  0.00  0.00    +0.000 N 
ATOM      6  C   UNL     1      -1.767   1.547   1.165  0.00  0.00    +0.000 C 
ATOM      7  O   UNL     1      -2.482   0.884   1.888  0.00  0.00    +0.000 OA
ATOM      8  C   UNL     1      -1.893   3.020   0.976  0.00  0.00    +0.000 C 
ATOM      9  O   UNL     1      -2.700   3.750   1.498  0.00  0.00    +0.000 OA
ENDROOT
BRANCH   4  10
ATOM     10  C   UNL     1       1.336   4.163   1.041  0.00  0.00    +0.000 A 
ATOM     11  C   UNL     1       2.184   5.223   0.781  0.00  0.00    +0.000 A 
ATOM     12  C   UNL     1       2.733   5.925   1.843  0.00  0.00    +0.000 A 
ATOM     13  C   UNL     1       2.417   5.525   3.132  0.00  0.00    +0.000 A 
ATOM     14  C   UNL     1       1.567   4.452   3.315  0.00  0.00    +0.000 A 
ATOM     15  N   UNL     1       1.058   3.810   2.281  0.00  0.00    +0.000 NA
ENDBRANCH   4  10
BRANCH   2  16
ATOM     16  O   UNL     1      -0.845   3.914  -2.302  0.00  0.00    +0.000 OA
ATOM     17  H   UNL     1      -0.729   4.844  -2.621  0.00  0.00    +0.000 HD
ENDBRANCH   2  16
BRANCH   5  18
ATOM     18  C   UNL     1      -0.393  -0.366   0.390  0.00  0.00    +0.000 C 
BRANCH  18  19
ATOM     19  C   UNL     1      -1.165  -1.068  -0.729  0.00  0.00    +0.000 C 
BRANCH  19  20
ATOM     20  N   UNL     1      -0.783  -2.492  -0.760  0.00  0.00    +0.000 N 
ATOM     21  H   UNL     1       0.230  -2.571  -0.929  0.00  0.00    +0.000 HD
ATOM     22  H   UNL     1      -1.008  -2.926   0.147  0.00  0.00    +0.000 HD
BRANCH  20  23
ATOM     23  C   UNL     1      -1.513  -3.195  -1.832  0.00  0.00    +0.000 C 
BRANCH  23  24
ATOM     24  C   UNL     1      -1.098  -4.668  -1.839  0.00  0.00    +0.000 C 
BRANCH  24  25
ATOM     25  O   UNL     1      -1.518  -5.287  -0.622  0.00  0.00    +0.000 OA
ATOM     26  H   UNL     1      -2.502  -5.223  -0.540  0.00  0.00    +0.000 HD
ENDBRANCH  24  25
ENDBRANCH  23  24
ENDBRANCH  20  23
ENDBRANCH  19  20
ENDBRANCH  18  19
ENDBRANCH   5  18
TORSDOF 8
ENDMDL
MODEL      483
REMARK  Name = ZINC05829026
REMARK  7 active torsions:
REMARK  status: ('A' for Active; 'I' for Inactive)
REMARK    1  A    between atoms: C_1  and  C_2
REMARK    2  A    between atoms: C_3  and  C_4
REMARK    3  A    between atoms: C_3  and  N_21
REMARK    4  A    between atoms: C_13  and  C_14
REMARK    5  A    between atoms: C_13  and  N_21
REMARK    6  A    between atoms: C_14  and  C_15
REMARK    7  A    between atoms: C_15  and  N_22
REMARK                            x       y       z     vdW  Elec       q    Type
REMARK                         _______ _______ _______ _____ _____    ______ ____
ROOT
ATOM      1  C   UNL     1       1.145  -2.145  -0.013  0.00  0.00    +0.000 C 
ATOM      2  C   UNL     1       1.110  -0.651   0.180  0.00  0.00    +0.000 C 
ATOM      3  C   UNL     1      -0.045  -0.012   0.179  0.00  0.00    +0.000 C 
ENDROOT
BRANCH   3   4
ATOM      4  C   UNL     1      -0.092   1.462   0.489  0.00  0.00    +0.000 A 
ATOM      5  C   UNL     1      -0.828   1.645   1.802  0.00  0.00    +0.000 A 
ATOM      6  O   UNL     1      -0.440   1.112   2.820  0.00  0.00    +0.000 OA
ATOM      7  N   UNL     1      -1.933   2.421   1.796  0.00  0.00    +0.000 N 
ATOM      8  C   UNL     1      -2.374   3.015   0.681  0.00  0.00    +0.000 A 
ATOM      9  O   UNL     1      -3.376   3.697   0.766  0.00  0.00    +0.000 OA
ATOM     10  N   UNL     1      -1.793   2.913  -0.519  0.00  0.00    +0.000 N 
ATOM     11  C   UNL     1      -0.677   2.179  -0.713  0.00  0.00    +0.000 A 
ATOM     12  O   UNL     1      -0.162   2.096  -1.807  0.00  0.00    +0.000 OA
ATOM     13  H   UNL     1      -2.451   2.560   2.675  0.00  0.00    +0.000 HD
ATOM     14  H   UNL     1      -2.210   3.410  -1.320  0.00  0.00    +0.000 HD
ENDBRANCH   3   4
BRANCH   3  15
ATOM     15  N   UNL     1      -1.216  -0.772  -0.119  0.00  0.00    +0.000 NA
ATOM     16  H   UNL     1      -1.070  -1.262  -1.013  0.00  0.00    +0.000 HD
ATOM     17  H   UNL     1      -1.331  -1.494   0.606  0.00  0.00    +0.000 HD
BRANCH  15  18
ATOM     18  C   UNL     1      -2.486   0.027  -0.209  0.00  0.00    +0.000 C 
BRANCH  18  19
ATOM     19  C   UNL     1      -3.627  -0.967  -0.436  0.00  0.00    +0.000 C 
BRANCH  19  20
ATOM     20  C   UNL     1      -4.952  -0.209  -0.541  0.00  0.00    +0.000 C 
BRANCH  20  26
ATOM     21  C   UNL     1      -5.922  -1.819  -2.069  0.00  0.00    +0.000 C 
ATOM     22  C   UNL     1      -7.046  -2.845  -2.229  0.00  0.00    +0.000 C 
ATOM     23  O   UNL     1      -8.308  -2.192  -2.068  0.00  0.00    +0.000 OA
ATOM     24  C   UNL     1      -8.464  -1.544  -0.803  0.00  0.00    +0.000 C 
ATOM     25  C   UNL     1      -7.354  -0.504  -0.628  0.00  0.00    +0.000 C 
ATOM     26  N   UNL     1      -6.046  -1.183  -0.740  0.00  0.00    +0.000 NA
ENDBRANCH  20  26
ENDBRANCH  19  20
ENDBRANCH  18  19
ENDBRANCH  15  18
ENDBRANCH   3  15
TORSDOF 6
ENDMDL
MODEL      484
REMARK  Name = ZINC04039469
REMARK  8 active torsions:
REMARK  status: ('A' for Active; 'I' for Inactive)
REMARK    1  A    between atoms: C_1  and  C_2
REMARK    2  A    between atoms: C_2  and  C_3
REMARK    3  A    between atoms: C_3  and  C_4
REMARK    4  A    between atoms: C_14  and  C_15
REMARK    5  A    between atoms: C_15  and  N_21
REMARK    6  A    between atoms: CA_16  and  CB_17
REMARK    7  A    between atoms: CA_16  and  C_18
REMARK    8  A    between atoms: CA_16  and  N_21
REMARK                            x       y       z     vdW  Elec       q    Type
REMARK                         _______ _______ _______ _____ _____    ______ ____
ROOT
ATOM      1  C   UNL     1       6.813   1.314   0.981  0.00  0.00    +0.000 A 
ATOM      2  C   UNL     1       6.532  -0.014   0.913  0.00  0.00    +0.000 A 
ATOM      3  C   UNL     1       5.193  -0.451   0.966  0.00  0.00    +0.000 A 
ATOM      4  O   UNL     1       4.955  -1.644   0.893  0.00  0.00    +0.000 OA
ATOM      5  O   UNL     1       4.173   0.412   1.094  0.00  0.00    +0.000 OA
ATOM      6  C   UNL     1       4.384   1.743   1.179  0.00  0.00    +0.000 A 
ATOM      7  C   UNL     1       5.696   2.250   1.127  0.00  0.00    +0.000 A 
ATOM      8  C   UNL     1       5.919   3.628   1.220  0.00  0.00    +0.000 A 
ATOM      9  C   UNL     1       4.860   4.479   1.356  0.00  0.00    +0.000 A 
ATOM     10  C   UNL     1       3.558   3.984   1.402  0.00  0.00    +0.000 A 
ATOM     11  C   UNL     1       3.320   2.622   1.311  0.00  0.00    +0.000 A 
ATOM     12  O   UNL     1       2.516   4.843   1.536  0.00  0.00    +0.000 OA
ENDROOT
BRANCH   1  13
ATOM     13  C   UNL     1       8.235   1.808   0.927  0.00  0.00    +0.000 C 
BRANCH  13  15
ATOM     14  C   UNL     1      10.213   2.484   2.296  0.00  0.00    +0.000 C 
ATOM     15  C   UNL     1       8.769   1.982   2.350  0.00  0.00    +0.000 C 
ENDBRANCH  13  15
ENDBRANCH   1  13
BRANCH  11  16
ATOM     16  C   ACE A   0       1.908   2.097   1.361  0.00  0.00    +0.000 C 
BRANCH  16  17
ATOM     17  N   UNL     1       1.365   2.037  -0.009  0.00  0.00    +0.000 N 
ATOM     18  H1  UNL     1       1.374   2.981  -0.421  0.00  0.00    +0.000 HD
ATOM     19  H2  UNL     1       1.951   1.413  -0.582  0.00  0.00    +0.000 HD
BRANCH  17  20
ATOM     20  CA  UNL     1      -0.019   1.526   0.010  0.00  0.00    +0.000 C 
ATOM     21  CB  UNL     1       0.002  -0.004   0.002  0.00  0.00    +0.000 C 
BRANCH  20  22
ATOM     22  C   UNL     1      -0.748   2.025  -1.210  0.00  0.00    +0.000 C 
ATOM     23  O   UNL     1      -0.177   2.732  -2.007  0.00  0.00    +0.000 OA
ATOM     24  OXT UNL     1      -2.030   1.684  -1.413  0.00  0.00    +0.000 OA
ENDBRANCH  20  22
ENDBRANCH  17  20
ENDBRANCH  16  17
ENDBRANCH  11  16
TORSDOF 6
ENDMDL
MODEL      485
REMARK  Name = ZINC01871950
REMARK  8 active torsions:
REMARK  status: ('A' for Active; 'I' for Inactive)
REMARK    1  A    between atoms: C_1  and  C_2
REMARK    2  A    between atoms: C_6  and  C_13
REMARK    3  A    between atoms: C_13  and  C_14
REMARK    4  A    between atoms: C_13  and  S_18
REMARK    5  A    between atoms: C_14  and  N_15
REMARK    6  A    between atoms: S_18  and  C_19
REMARK    7  A    between atoms: C_19  and  C_20
REMARK    8  A    between atoms: C_20  and  N_21
REMARK                            x       y       z     vdW  Elec       q    Type
REMARK                         _______ _______ _______ _____ _____    ______ ____
ROOT
ATOM      1  C   UNL     1      -2.855   4.576   5.928  0.00  0.00    +0.000 C 
ATOM      2  C   UNL     1      -2.383   3.354   6.675  0.00  0.00    +0.000 C 
ATOM      3  O   UNL     1      -2.648   3.223   7.850  0.00  0.00    +0.000 OA
ATOM      4  N   UNL     1      -1.667   2.409   6.035  0.00  0.00    +0.000 N 
ATOM      5  C   UNL     1      -1.308   2.449   4.708  0.00  0.00    +0.000 A 
ATOM      6  C   UNL     1      -0.602   1.355   4.393  0.00  0.00    +0.000 A 
ATOM      7  C   UNL     1      -0.500   0.540   5.609  0.00  0.00    +0.000 A 
ATOM      8  C   UNL     1      -1.181   1.250   6.614  0.00  0.00    +0.000 A 
ATOM      9  C   UNL     1      -1.252   0.721   7.896  0.00  0.00    +0.000 A 
ATOM     10  C   UNL     1      -0.652  -0.489   8.175  0.00  0.00    +0.000 A 
ATOM     11  C   UNL     1       0.025  -1.187   7.186  0.00  0.00    +0.000 A 
ATOM     12  C   UNL     1       0.107  -0.680   5.908  0.00  0.00    +0.000 A 
ENDROOT
BRANCH   6  13
ATOM     13  C   UNL     1      -0.025   1.021   3.042  0.00  0.00    +0.000 C 
BRANCH  13  14
ATOM     14  C   UNL     1       1.431   1.484   2.980  0.00  0.00    +0.000 C 
BRANCH  14  15
ATOM     15  N   UNL     1       2.237   0.687   3.907  0.00  0.00    +0.000 N 
ATOM     16  O   UNL     1       2.162  -0.529   3.889  0.00  0.00    +0.000 OA
ATOM     17  O   UNL     1       2.983   1.239   4.696  0.00  0.00    +0.000 OA
ENDBRANCH  14  15
ENDBRANCH  13  14
BRANCH  13  18
ATOM     18  S   UNL     1      -0.983   1.863   1.751  0.00  0.00    +0.000 S 
BRANCH  18  19
ATOM     19  C   UNL     1      -0.338   1.170   0.204  0.00  0.00    +0.000 C 
BRANCH  19  20
ATOM     20  C   UNL     1      -1.153   1.707  -0.975  0.00  0.00    +0.000 C 
BRANCH  20  21
ATOM     21  N   UNL     1      -0.635   1.121  -2.223  0.00  0.00    +0.000 N 
ATOM     22  H   UNL     1      -0.720   0.095  -2.188  0.00  0.00    +0.000 HD
ATOM     23  H   UNL     1       0.354   1.381  -2.345  0.00  0.00    +0.000 HD
ATOM     24  H   UNL     1      -1.181   1.480  -3.020  0.00  0.00    +0.000 HD
ENDBRANCH  20  21
ENDBRANCH  19  20
ENDBRANCH  18  19
ENDBRANCH  13  18
ENDBRANCH   6  13
TORSDOF 7
ENDMDL
MODEL      486
REMARK  Name = ZINC18058888
REMARK  4 active torsions:
REMARK  status: ('A' for Active; 'I' for Inactive)
REMARK    1  A    between atoms: C_1  and  O_2
REMARK    2  A    between atoms: O_2  and  C_3
REMARK    3  A    between atoms: C_3  and  C_4
REMARK    4  A    between atoms: N_13  and  C_14
REMARK                            x       y       z     vdW  Elec       q    Type
REMARK                         _______ _______ _______ _____ _____    ______ ____
ROOT
ATOM      1  C   UNL     1       0.675   0.075   3.035  0.00  0.00    +0.000 A 
ATOM      2  C   UNL     1       1.909   0.678   2.875  0.00  0.00    +0.000 A 
ATOM      3  C   UNL     1       1.980   1.865   2.147  0.00  0.00    +0.000 A 
ATOM      4  N   UNL     1       0.866   2.374   1.633  0.00  0.00    +0.000 NA
ATOM      5  C   UNL     1      -0.297   1.766   1.808  0.00  0.00    +0.000 A 
ATOM      6  N   UNL     1      -0.395   0.638   2.495  0.00  0.00    +0.000 NA
ATOM      7  N   UNL     1      -1.441   2.322   1.253  0.00  0.00    +0.000 N 
ATOM      8  C   UNL     1      -1.358   3.495   0.535  0.00  0.00    +0.000 C 
ATOM      9  N   UNL     1      -0.218   4.117   0.431  0.00  0.00    +0.000 N 
ATOM     10  N   UNL     1      -2.480   4.011  -0.073  0.00  0.00    +0.000 N 
ATOM     11  O   UNL     1       3.168   2.490   1.966  0.00  0.00    +0.000 OA
ATOM     12  H   UNL     1      -2.352   1.857   1.377  0.00  0.00    +0.000 HD
ATOM     13  H   UNL     1       0.622   3.731   0.886  0.00  0.00    +0.000 HD
ATOM     14  H   UNL     1      -0.156   4.994  -0.105  0.00  0.00    +0.000 HD
ATOM     15  H   UNL     1      -2.441   4.933  -0.529  0.00  0.00    +0.000 HD
ENDROOT
BRANCH  10  16
ATOM     16  C   UNL     1      -3.674   3.281  -0.072  0.00  0.00    +0.000 A 
ATOM     17  C   UNL     1      -3.641   1.893  -0.079  0.00  0.00    +0.000 A 
ATOM     18  C   UNL     1      -4.821   1.175  -0.072  0.00  0.00    +0.000 A 
ATOM     19  C   UNL     1      -6.035   1.837  -0.068  0.00  0.00    +0.000 A 
ATOM     20  C   UNL     1      -6.072   3.220  -0.066  0.00  0.00    +0.000 A 
ATOM     21  C   UNL     1      -4.894   3.944  -0.068  0.00  0.00    +0.000 A 
ATOM     22 CL   UNL     1      -7.598   4.047  -0.063  0.00  0.00    +0.000 Cl
ENDBRANCH  10  16
BRANCH   1  23
ATOM     23  C   UNL     1       0.550  -1.209   3.814  0.00  0.00    +0.000 C 
BRANCH  23  25
ATOM     24  C   UNL     1       1.831  -2.819   5.044  0.00  0.00    +0.000 C 
ATOM     25  O   UNL     1       1.839  -1.606   4.288  0.00  0.00    +0.000 OA
ENDBRANCH  23  25
ENDBRANCH   1  23
TORSDOF 3
ENDMDL
MODEL      487
REMARK  Name = ZINC06886752
REMARK  7 active torsions:
REMARK  status: ('A' for Active; 'I' for Inactive)
REMARK    1  A    between atoms: C_1  and  C_2
REMARK    2  A    between atoms: C_6  and  N_9
REMARK    3  A    between atoms: C_7  and  C_8
REMARK    4  A    between atoms: C_10  and  C_12
REMARK    5  A    between atoms: C_12  and  C_13
REMARK    6  A    between atoms: N_19  and  N_20
REMARK    7  A    between atoms: N_20  and  C_21
REMARK                            x       y       z     vdW  Elec       q    Type
REMARK                         _______ _______ _______ _____ _____    ______ ____
ROOT
ATOM      1  C   UNL     1      -2.478  -2.828  -0.204  0.00  0.00    +0.000 C 
ENDROOT
BRANCH   1   2
ATOM      2  C   UNL     1      -2.180  -4.325  -0.316  0.00  0.00    +0.000 A 
ATOM      3  C   UNL     1      -3.456  -5.133  -0.512  0.00  0.00    +0.000 A 
ATOM      4  O   UNL     1      -4.349  -5.171   0.312  0.00  0.00    +0.000 OA
ATOM      5  N   UNL     1      -3.507  -5.782  -1.646  0.00  0.00    +0.000 NA
ATOM      6  C   UNL     1      -2.551  -5.759  -2.561  0.00  0.00    +0.000 A 
ATOM      7  S   UNL     1      -1.328  -4.723  -1.895  0.00  0.00    +0.000 S 
ATOM      8  N   UNL     1      -2.531  -6.407  -3.761  0.00  0.00    +0.000 N 
ATOM      9  H   UNL     1      -1.720  -6.305  -4.387  0.00  0.00    +0.000 HD
BRANCH   8  10
ATOM     10  N   UNL     1      -3.615  -7.210  -4.141  0.00  0.00    +0.000 N 
ATOM     11  H   UNL     1      -4.426  -7.311  -3.515  0.00  0.00    +0.000 HD
BRANCH  10  12
ATOM     12  C   UNL     1      -3.594  -7.870  -5.364  0.00  0.00    +0.000 C 
ATOM     13  C   UNL     1      -4.614  -8.626  -5.723  0.00  0.00    +0.000 C 
ENDBRANCH  10  12
ENDBRANCH   8  10
ENDBRANCH   1   2
BRANCH   1  15
ATOM     14  N   UNL     1      -1.199  -0.722   0.010  0.00  0.00    +0.000 N 
ATOM     15  C   UNL     1      -1.183  -2.065  -0.099  0.00  0.00    +0.000 C 
ATOM     16  O   UNL     1      -0.125  -2.659  -0.113  0.00  0.00    +0.000 OA
ATOM     17  H   UNL     1      -2.097  -0.223   0.092  0.00  0.00    +0.000 HD
BRANCH  14  23
ATOM     18  C   UNL     1       1.321   3.320  -1.210  0.00  0.00    +0.000 C 
ATOM     19  C   UNL     1       1.252   1.956  -0.571  0.00  0.00    +0.000 A 
ATOM     20  C   UNL     1       2.379   1.413   0.019  0.00  0.00    +0.000 A 
ATOM     21  C   UNL     1       2.320   0.162   0.605  0.00  0.00    +0.000 A 
ATOM     22  C   UNL     1       1.135  -0.548   0.604  0.00  0.00    +0.000 A 
ATOM     23  C   UNL     1       0.003  -0.005   0.013  0.00  0.00    +0.000 A 
ATOM     24  C   UNL     1       0.065   1.252  -0.576  0.00  0.00    +0.000 A 
ATOM     25  C   UNL     1      -1.161   1.842  -1.224  0.00  0.00    +0.000 C 
ENDBRANCH  14  23
ENDBRANCH   1  15
TORSDOF 5
ENDMDL
MODEL      488
REMARK  Name = ZINC29477133
REMARK  7 active torsions:
REMARK  status: ('A' for Active; 'I' for Inactive)
REMARK    1  A    between atoms: C_1  and  N_2
REMARK    2  A    between atoms: N_2  and  C_3
REMARK    3  A    between atoms: C_10  and  C_12
REMARK    4  A    between atoms: C_12  and  S_13
REMARK    5  A    between atoms: S_13  and  C_14
REMARK    6  A    between atoms: N_15  and  C_16
REMARK    7  A    between atoms: C_16  and  C_17
REMARK                            x       y       z     vdW  Elec       q    Type
REMARK                         _______ _______ _______ _____ _____    ______ ____
ROOT
ATOM      1  C   UNL     1      -1.786   5.895   3.443  0.00  0.00    +0.000 C 
ATOM      2  N   UNL     1      -2.484   5.132   4.481  0.00  0.00    +0.000 N 
ATOM      3  C   UNL     1      -2.552   3.789   4.400  0.00  0.00    +0.000 C 
ATOM      4  O   UNL     1      -3.130   3.157   5.259  0.00  0.00    +0.000 OA
ENDROOT
BRANCH   2   5
ATOM      5  C   UNL     1      -3.108   5.830   5.607  0.00  0.00    +0.000 C 
ATOM      6  C   UNL     1      -4.154   6.828   5.085  0.00  0.00    +0.000 C 
ATOM      7  C   UNL     1      -4.584   7.787   6.221  0.00  0.00    +0.000 C 
ATOM      8  S   UNL     1      -3.091   7.834   7.295  0.00  0.00    +0.000 S 
ATOM      9  O   UNL     1      -3.422   7.298   8.569  0.00  0.00    +0.000 OA
ATOM     10  O   UNL     1      -2.501   9.123   7.210  0.00  0.00    +0.000 OA
ATOM     11  C   UNL     1      -2.029   6.628   6.394  0.00  0.00    +0.000 C 
ENDBRANCH   2   5
BRANCH   3  12
ATOM     12  C   UNL     1      -1.909   3.071   3.241  0.00  0.00    +0.000 C 
BRANCH  12  13
ATOM     13  S   UNL     1      -2.171   1.288   3.416  0.00  0.00    +0.000 S 
BRANCH  13  14
ATOM     14  C   UNL     1      -1.343   0.714   1.970  0.00  0.00    +0.000 C 
ATOM     15  N   UNL     1      -0.776   1.566   1.162  0.00  0.00    +0.000 N 
ATOM     16  N   UNL     1      -1.293  -0.633   1.696  0.00  0.00    +0.000 N 
ATOM     17  H   UNL     1      -0.729   2.563   1.415  0.00  0.00    +0.000 HD
ATOM     18  H   UNL     1      -1.740  -1.306   2.334  0.00  0.00    +0.000 HD
ATOM     19  H   UNL     1      -0.808  -0.969   0.851  0.00  0.00    +0.000 HD
BRANCH  15  20
ATOM     20  C   UNL     1      -0.207   1.105  -0.107  0.00  0.00    +0.000 C 
BRANCH  20  21
ATOM     21  C   UNL     1      -0.949   1.744  -1.252  0.00  0.00    +0.000 C 
ATOM     22  C   UNL     1      -0.292   2.418  -2.163  0.00  0.00    +0.000 C 
ENDBRANCH  20  21
ENDBRANCH  15  20
ENDBRANCH  13  14
ENDBRANCH  12  13
ENDBRANCH   3  12
TORSDOF 6
ENDMDL
MODEL      489
REMARK  Name = ZINC22791525
REMARK  9 active torsions:
REMARK  status: ('A' for Active; 'I' for Inactive)
REMARK    1  A    between atoms: C_1  and  O_2
REMARK    2  A    between atoms: O_2  and  C_3
REMARK    3  A    between atoms: C_6  and  S_11
REMARK    4  A    between atoms: C_7  and  O_9
REMARK    5  A    between atoms: O_9  and  C_10
REMARK    6  A    between atoms: S_11  and  N_14
REMARK    7  A    between atoms: N_17  and  C_20
REMARK    8  A    between atoms: C_20  and  C_21
REMARK    9  A    between atoms: C_21  and  N_22
REMARK                            x       y       z     vdW  Elec       q    Type
REMARK                         _______ _______ _______ _____ _____    ______ ____
ROOT
ATOM      1  S   UNL     1       1.637  -0.040   6.362  0.00  0.00    +0.000 S 
ATOM      2  O   UNL     1       0.568  -0.548   7.147  0.00  0.00    +0.000 OA
ATOM      3  O   UNL     1       2.798  -0.804   6.068  0.00  0.00    +0.000 OA
ENDROOT
BRANCH   1   4
ATOM      4  N   UNL     1       2.158   1.343   7.110  0.00  0.00    +0.000 NA
ATOM      5  C   UNL     1       3.527   1.840   6.909  0.00  0.00    +0.000 C 
ATOM      6  C   UNL     1       3.448   3.322   6.508  0.00  0.00    +0.000 C 
ATOM      7  N   UNL     1       2.663   4.054   7.512  0.00  0.00    +0.000 NA
ATOM      8  C   UNL     1       1.276   3.571   7.559  0.00  0.00    +0.000 C 
ATOM      9  C   UNL     1       1.265   2.103   7.998  0.00  0.00    +0.000 C 
BRANCH   7  10
ATOM     10  C   UNL     1       2.709   5.501   7.263  0.00  0.00    +0.000 C 
BRANCH  10  11
ATOM     11  C   UNL     1       4.138   6.008   7.466  0.00  0.00    +0.000 C 
BRANCH  11  12
ATOM     12  N   UNL     1       4.184   7.455   7.218  0.00  0.00    +0.000 N 
ATOM     13  H   UNL     1       3.552   7.938   7.873  0.00  0.00    +0.000 HD
ATOM     14  H   UNL     1       3.886   7.648   6.251  0.00  0.00    +0.000 HD
ATOM     15  H   UNL     1       5.146   7.798   7.355  0.00  0.00    +0.000 HD
ENDBRANCH  11  12
ENDBRANCH  10  11
ENDBRANCH   7  10
ENDBRANCH   1   4
BRANCH   1  19
ATOM     16  C   UNL     1      -0.149   1.182   2.380  0.00  0.00    +0.000 A 
ATOM     17  C   UNL     1       0.992   0.392   2.420  0.00  0.00    +0.000 A 
ATOM     18  C   UNL     1       1.537   0.026   3.635  0.00  0.00    +0.000 A 
ATOM     19  C   UNL     1       0.942   0.436   4.814  0.00  0.00    +0.000 A 
ATOM     20  C   UNL     1      -0.201   1.221   4.779  0.00  0.00    +0.000 A 
ATOM     21  C   UNL     1      -0.747   1.595   3.560  0.00  0.00    +0.000 A 
BRANCH  20  22
ATOM     22  O   UNL     1      -0.785   1.624   5.938  0.00  0.00    +0.000 OA
ATOM     23  C   UNL     1      -1.959   2.431   5.826  0.00  0.00    +0.000 C 
ENDBRANCH  20  22
BRANCH  16  25
ATOM     24  C   UNL     1      -0.013   1.086   0.008  0.00  0.00    +0.000 C 
ATOM     25  O   UNL     1      -0.682   1.547   1.184  0.00  0.00    +0.000 OA
ENDBRANCH  16  25
ENDBRANCH   1  19
TORSDOF 7
ENDMDL
MODEL      490
REMARK  Name = ZINC20920937
REMARK  9 active torsions:
REMARK  status: ('A' for Active; 'I' for Inactive)
REMARK    1  A    between atoms: C_1  and  C_2
REMARK    2  A    between atoms: C_2  and  C_3
REMARK    3  A    between atoms: C_2  and  N_4
REMARK    4  A    between atoms: C_6  and  C_9
REMARK    5  A    between atoms: N_10  and  N_11
REMARK    6  A    between atoms: C_15  and  S_18
REMARK    7  A    between atoms: N_16  and  N_17
REMARK    8  A    between atoms: S_18  and  C_19
REMARK    9  A    between atoms: C_19  and  C_20
REMARK                            x       y       z     vdW  Elec       q    Type
REMARK                         _______ _______ _______ _____ _____    ______ ____
ROOT
ATOM      1  N   UNL     1      -0.011   0.966   0.007  0.00  0.00    +0.000 N 
ATOM      2  C   UNL     1       1.181   1.676  -0.000  0.00  0.00    +0.000 A 
ATOM      3  N   UNL     1       1.300   2.981   0.000  0.00  0.00    +0.000 NA
ATOM      4  N   UNL     1       2.666   3.291  -0.006  0.00  0.00    +0.000 NA
ATOM      5  C   UNL     1       3.337   2.164  -0.018  0.00  0.00    +0.000 A 
ATOM      6  N   UNL     1       2.437   1.137  -0.015  0.00  0.00    +0.000 N 
ATOM      7  H   UNL     1       0.003  -0.064   0.006  0.00  0.00    +0.000 HD
ENDROOT
BRANCH   6   8
ATOM      8  N   UNL     1       2.739  -0.195  -0.025  0.00  0.00    +0.000 N 
ATOM      9  H   UNL     1       1.933  -0.837  -0.020  0.00  0.00    +0.000 HD
ATOM     10  H   UNL     1       3.705  -0.552  -0.036  0.00  0.00    +0.000 HD
ENDBRANCH   6   8
BRANCH   1  12
ATOM     11  C   UNL     1      -2.349   0.986   0.018  0.00  0.00    +0.000 C 
ATOM     12  N   UNL     1      -1.234   1.650   0.017  0.00  0.00    +0.000 NA
BRANCH  11  15
ATOM     13  N   UNL     1      -5.790   2.142   0.041  0.00  0.00    +0.000 N 
ATOM     14  C   UNL     1      -4.892   1.137   0.031  0.00  0.00    +0.000 A 
ATOM     15  C   UNL     1      -3.637   1.706   0.029  0.00  0.00    +0.000 A 
ATOM     16  C   UNL     1      -3.812   3.107   0.043  0.00  0.00    +0.000 A 
ATOM     17  N   UNL     1      -5.094   3.356   0.044  0.00  0.00    +0.000 NA
BRANCH  13  19
ATOM     18  C   UNL     1      -7.748   1.819  -1.388  0.00  0.00    +0.000 C 
ATOM     19  C   UNL     1      -7.247   1.989   0.047  0.00  0.00    +0.000 C 
ATOM     20  C   UNL     1      -7.628   0.756   0.870  0.00  0.00    +0.000 C 
ENDBRANCH  13  19
ENDBRANCH  11  15
ENDBRANCH   1  12
BRANCH   5  21
ATOM     21  S   UNL     1       5.092   2.004  -0.037  0.00  0.00    +0.000 S 
BRANCH  21  22
ATOM     22  C   UNL     1       5.689   3.717  -0.033  0.00  0.00    +0.000 C 
BRANCH  22  23
ATOM     23  C   UNL     1       7.161   3.723  -0.047  0.00  0.00    +0.000 C 
ATOM     24  N   UNL     1       8.297   3.728  -0.059  0.00  0.00    +0.000 NA
ENDBRANCH  22  23
ENDBRANCH  21  22
ENDBRANCH   5  21
TORSDOF 7
ENDMDL
MODEL      491
REMARK  Name = ZINC21511094
REMARK  8 active torsions:
REMARK  status: ('A' for Active; 'I' for Inactive)
REMARK    1  A    between atoms: C_1  and  C_2
REMARK    2  A    between atoms: C_2  and  C_3
REMARK    3  A    between atoms: C_2  and  N_14
REMARK    4  A    between atoms: N_14  and  C_15
REMARK    5  A    between atoms: C_15  and  C_16
REMARK    6  A    between atoms: C_16  and  N_17
REMARK    7  A    between atoms: N_17  and  S_18
REMARK    8  A    between atoms: S_18  and  C_21
REMARK                            x       y       z     vdW  Elec       q    Type
REMARK                         _______ _______ _______ _____ _____    ______ ____
ROOT
ATOM      1  C   UNL     1       4.414  -0.031  -5.113  0.00  0.00    +0.000 C 
ATOM      2  C   UNL     1       4.849  -0.386  -3.690  0.00  0.00    +0.000 C 
ENDROOT
BRANCH   2   3
ATOM      3  C   UNL     1       3.906   0.252  -2.703  0.00  0.00    +0.000 A 
ATOM      4  C   UNL     1       4.050   1.588  -2.377  0.00  0.00    +0.000 A 
ATOM      5  C   UNL     1       3.188   2.181  -1.472  0.00  0.00    +0.000 A 
ATOM      6  C   UNL     1       2.178   1.435  -0.891  0.00  0.00    +0.000 A 
ATOM      7  C   UNL     1       2.034   0.088  -1.218  0.00  0.00    +0.000 A 
ATOM      8  C   UNL     1       2.900  -0.501  -2.125  0.00  0.00    +0.000 A 
ATOM      9  N   UNL     1       1.007  -0.657  -0.621  0.00  0.00    +0.000 N 
ATOM     10  C   UNL     1       0.002  -0.004   0.002  0.00  0.00    +0.000 C 
ATOM     11  O   UNL     1      -0.881  -0.628   0.552  0.00  0.00    +0.000 OA
ATOM     12  C   UNL     1      -0.018   1.503   0.010  0.00  0.00    +0.000 C 
ATOM     13  O   UNL     1       1.322   2.002   0.000  0.00  0.00    +0.000 OA
ATOM     14  H   UNL     1       1.020  -1.686  -0.656  0.00  0.00    +0.000 HD
ENDBRANCH   2   3
BRANCH   2  15
ATOM     15  N   UNL     1       6.212   0.109  -3.456  0.00  0.00    +0.000 N 
ATOM     16  H   UNL     1       6.338   1.003  -3.952  0.00  0.00    +0.000 HD
ATOM     17  H   UNL     1       6.348   0.267  -2.448  0.00  0.00    +0.000 HD
BRANCH  15  18
ATOM     18  C   UNL     1       7.212  -0.854  -3.934  0.00  0.00    +0.000 C 
BRANCH  18  19
ATOM     19  C   UNL     1       8.616  -0.304  -3.674  0.00  0.00    +0.000 C 
BRANCH  19  20
ATOM     20  N   UNL     1       9.613  -1.265  -4.151  0.00  0.00    +0.000 NA
ATOM     21  H   UNL     1       9.334  -2.233  -4.366  0.00  0.00    +0.000 HD
BRANCH  20  22
ATOM     22  S   UNL     1      11.189  -0.796  -4.345  0.00  0.00    +0.000 S 
ATOM     23  O   UNL     1      11.855  -1.952  -4.834  0.00  0.00    +0.000 OA
ATOM     24  O   UNL     1      11.121   0.387  -5.129  0.00  0.00    +0.000 OA
ATOM     25  C   UNL     1      11.768  -0.404  -2.671  0.00  0.00    +0.000 C 
ENDBRANCH  20  22
ENDBRANCH  19  20
ENDBRANCH  18  19
ENDBRANCH  15  18
ENDBRANCH   2  15
TORSDOF 6
ENDMDL
MODEL      492
REMARK  Name = ZINC01733127
REMARK  5 active torsions:
REMARK  status: ('A' for Active; 'I' for Inactive)
REMARK    1  A    between atoms: C_1  and  C_2
REMARK    2  A    between atoms: C_2  and  S_3
REMARK    3  A    between atoms: S_3  and  P_4
REMARK    4  A    between atoms: N_8  and  C_9
REMARK    5  A    between atoms: C_9  and  C_10
REMARK                            x       y       z     vdW  Elec       q    Type
REMARK                         _______ _______ _______ _____ _____    ______ ____
ROOT
ATOM      1  C   UNL     1       1.199   1.385  -0.002  0.00  0.00    +0.000 C 
ATOM      2  N   UNL     1       2.238   0.492  -0.017  0.00  0.00    +0.000 N 
ATOM      3  N   UNL     1      -0.063   1.014   0.008  0.00  0.00    +0.000 N 
ATOM      4  H   UNL     1       3.210   0.834  -0.024  0.00  0.00    +0.000 HD
ATOM      5  H   UNL     1      -0.837   1.693   0.019  0.00  0.00    +0.000 HD
ATOM      6  H   UNL     1      -0.276   0.006   0.005  0.00  0.00    +0.000 HD
ENDROOT
BRANCH   1   7
ATOM      7  C   UNL     1       1.477   2.866   0.003  0.00  0.00    +0.000 C 
BRANCH   7   8
ATOM      8  S   UNL     1      -0.092   3.776   0.023  0.00  0.00    +0.000 S 
BRANCH   8   9
ATOM      9  P   UNL     1      -0.783   3.563   2.016  0.00  0.00    +0.000 P 
ATOM     10  O   UNL     1       0.209   4.142   2.947  0.00  0.00    +0.000 OA
ATOM     11  O   UNL     1      -2.188   4.332   2.182  0.00  0.00    +0.000 OA
ATOM     12  O   UNL     1      -0.984   2.001   2.349  0.00  0.00    +0.000 OA
ENDBRANCH   8   9
ENDBRANCH   7   8
ENDBRANCH   1   7
BRANCH   2  13
ATOM     13  C   UNL     1       1.967  -0.947  -0.022  0.00  0.00    +0.000 C 
BRANCH  13  14
ATOM     14  C   UNL     1       3.290  -1.715  -0.038  0.00  0.00    +0.000 C 
ATOM     15  C   UNL     1       4.081  -1.341  -1.293  0.00  0.00    +0.000 C 
ATOM     16  C   UNL     1       5.405  -2.108  -1.310  0.00  0.00    +0.000 C 
ATOM     17  C   UNL     1       5.122  -3.612  -1.316  0.00  0.00    +0.000 C 
ATOM     18  C   UNL     1       4.331  -3.986  -0.061  0.00  0.00    +0.000 C 
ATOM     19  C   UNL     1       3.007  -3.219  -0.044  0.00  0.00    +0.000 C 
ATOM     20  C   UNL     1       5.146  -3.625   1.183  0.00  0.00    +0.000 C 
ATOM     21  C   UNL     1       5.428  -2.122   1.188  0.00  0.00    +0.000 C 
ATOM     22  C   UNL     1       6.220  -1.747  -0.067  0.00  0.00    +0.000 C 
ATOM     23  C   UNL     1       4.105  -1.354   1.205  0.00  0.00    +0.000 C 
ENDBRANCH  13  14
ENDBRANCH   2  13
TORSDOF 5
ENDMDL
MODEL      493
REMARK  Name = ZINC05807405
REMARK  7 active torsions:
REMARK  status: ('A' for Active; 'I' for Inactive)
REMARK    1  A    between atoms: C_4  and  C_7
REMARK    2  A    between atoms: C_7  and  N_8
REMARK    3  A    between atoms: C_9  and  C_11
REMARK    4  A    between atoms: C_11  and  C_22
REMARK    5  A    between atoms: N_12  and  N_13
REMARK    6  A    between atoms: N_13  and  C_14
REMARK    7  A    between atoms: C_15  and  C_19
REMARK                            x       y       z     vdW  Elec       q    Type
REMARK                         _______ _______ _______ _____ _____    ______ ____
ROOT
ATOM      1  C   UNL     1      -5.858   3.971   0.128  0.00  0.00    +0.000 C 
ATOM      2  N   UNL     1      -6.788   4.850  -0.177  0.00  0.00    +0.000 NA
ENDROOT
BRANCH   1   4
ATOM      3  N   UNL     1      -5.195   1.628   0.320  0.00  0.00    +0.000 N 
ATOM      4  C   UNL     1      -6.173   2.533   0.122  0.00  0.00    +0.000 C 
ATOM      5  O   UNL     1      -7.317   2.162  -0.062  0.00  0.00    +0.000 OA
ATOM      6  H   UNL     1      -4.215   1.937   0.399  0.00  0.00    +0.000 HD
BRANCH   3   7
ATOM      7  C   UNL     1      -5.524   0.204   0.422  0.00  0.00    +0.000 C 
BRANCH   7  11
ATOM      8  C   UNL     1      -1.945  -2.045   1.043  0.00  0.00    +0.000 A 
ATOM      9  C   UNL     1      -2.657  -1.565   2.127  0.00  0.00    +0.000 A 
ATOM     10  C   UNL     1      -3.815  -0.837   1.926  0.00  0.00    +0.000 A 
ATOM     11  C   UNL     1      -4.261  -0.589   0.641  0.00  0.00    +0.000 A 
ATOM     12  C   UNL     1      -3.553  -1.074  -0.442  0.00  0.00    +0.000 A 
ATOM     13  C   UNL     1      -2.392  -1.797  -0.242  0.00  0.00    +0.000 A 
ENDBRANCH   7  11
ENDBRANCH   3   7
ENDBRANCH   1   4
BRANCH   1  14
ATOM     14  C   UNL     1      -4.538   4.413   0.464  0.00  0.00    +0.000 C 
ATOM     15  N   UNL     1      -3.491   4.764   0.732  0.00  0.00    +0.000 NA
ENDBRANCH   1  14
BRANCH   2  16
ATOM     16  N   UNL     1      -7.929   4.452  -0.630  0.00  0.00    +0.000 NA
BRANCH  16  17
ATOM     17  C   UNL     1      -8.958   5.365  -0.821  0.00  0.00    +0.000 A 
ATOM     18  C   UNL     1     -10.229   5.082  -1.298  0.00  0.00    +0.000 A 
ATOM     19  N   UNL     1     -10.907   6.290  -1.315  0.00  0.00    +0.000 N 
ATOM     20  C   UNL     1     -10.054   7.231  -0.870  0.00  0.00    +0.000 A 
ATOM     21  N   UNL     1      -8.904   6.681  -0.582  0.00  0.00    +0.000 NA
ATOM     22  H   UNL     1     -11.881   6.440  -1.614  0.00  0.00    +0.000 HD
BRANCH  18  23
ATOM     23  C   UNL     1     -10.749   3.775  -1.696  0.00  0.00    +0.000 C 
ATOM     24  O   UNL     1     -10.037   2.790  -1.629  0.00  0.00    +0.000 OA
ATOM     25  N   UNL     1     -12.017   3.660  -2.137  0.00  0.00    +0.000 N 
ATOM     26  H   UNL     1     -12.620   4.494  -2.194  0.00  0.00    +0.000 HD
ATOM     27  H   UNL     1     -12.384   2.739  -2.418  0.00  0.00    +0.000 HD
ENDBRANCH  18  23
ENDBRANCH  16  17
ENDBRANCH   2  16
TORSDOF 7
ENDMDL
MODEL      494
REMARK  Name = ZINC23989771
REMARK  10 active torsions:
REMARK  status: ('A' for Active; 'I' for Inactive)
REMARK    1  A    between atoms: C_1  and  C_2
REMARK    2  A    between atoms: C_3  and  C_24
REMARK    3  A    between atoms: N_11  and  C_23
REMARK    4  A    between atoms: N_15  and  C_16
REMARK    5  A    between atoms: C_16  and  C_17
REMARK    6  A    between atoms: C_17  and  N_18
REMARK    7  A    between atoms: N_18  and  C_19
REMARK    8  A    between atoms: C_19  and  C_20
REMARK    9  A    between atoms: C_20  and  O_21
REMARK   10  A    between atoms: O_21  and  C_22
REMARK                            x       y       z     vdW  Elec       q    Type
REMARK                         _______ _______ _______ _____ _____    ______ ____
ROOT
ATOM      1  C   UNL     1      -1.206  -0.904   0.009  0.00  0.00    +0.000 C 
ATOM      2  C   UNL     1       0.002  -0.004   0.002  0.00  0.00    +0.000 A 
ATOM      3  C   UNL     1      -0.016   1.326   0.009  0.00  0.00    +0.000 A 
ATOM      4  N   UNL     1       1.292   1.779  -0.001  0.00  0.00    +0.000 N 
ATOM      5  C   UNL     1       2.102   2.904  -0.003  0.00  0.00    +0.000 A 
ATOM      6  C   UNL     1       1.863   4.288   0.006  0.00  0.00    +0.000 A 
ATOM      7  O   UNL     1       0.722   4.716   0.019  0.00  0.00    +0.000 OA
ATOM      8  N   UNL     1       2.910   5.139   0.000  0.00  0.00    +0.000 N 
ATOM      9  C   UNL     1       4.174   4.684  -0.014  0.00  0.00    +0.000 A 
ATOM     10  O   UNL     1       5.092   5.481  -0.019  0.00  0.00    +0.000 OA
ATOM     11  N   UNL     1       4.450   3.365  -0.024  0.00  0.00    +0.000 N 
ATOM     12  C   UNL     1       3.416   2.441  -0.018  0.00  0.00    +0.000 A 
ATOM     13  N   UNL     1       3.372   1.111  -0.024  0.00  0.00    +0.000 NA
ATOM     14  C   UNL     1       2.111   0.702  -0.014  0.00  0.00    +0.000 A 
ATOM     15  N   UNL     1       1.321  -0.417  -0.013  0.00  0.00    +0.000 N 
ATOM     16  C   UNL     1       5.842   2.908  -0.040  0.00  0.00    +0.000 C 
ATOM     17  C   UNL     1      -1.250   2.191   0.020  0.00  0.00    +0.000 C 
ATOM     18  H   UNL     1       2.737   6.155   0.006  0.00  0.00    +0.000 HD
ENDROOT
BRANCH  15  19
ATOM     19  C   UNL     1       1.790  -1.805  -0.025  0.00  0.00    +0.000 C 
BRANCH  19  20
ATOM     20  C   UNL     1       1.940  -2.280  -1.471  0.00  0.00    +0.000 C 
BRANCH  20  21
ATOM     21  N   UNL     1       2.410  -3.672  -1.483  0.00  0.00    +0.000 N 
ATOM     22  H   UNL     1       3.317  -3.728  -0.999  0.00  0.00    +0.000 HD
ATOM     23  H   UNL     1       1.731  -4.266  -0.986  0.00  0.00    +0.000 HD
BRANCH  21  24
ATOM     24  C   UNL     1       2.566  -4.163  -2.859  0.00  0.00    +0.000 C 
BRANCH  24  25
ATOM     25  C   UNL     1       3.056  -5.612  -2.830  0.00  0.00    +0.000 C 
BRANCH  25  26
ATOM     26  O   UNL     1       2.052  -6.443  -2.244  0.00  0.00    +0.000 OA
ATOM     27  C   UNL     1       2.412  -7.824  -2.169  0.00  0.00    +0.000 C 
ENDBRANCH  25  26
ENDBRANCH  24  25
ENDBRANCH  21  24
ENDBRANCH  20  21
ENDBRANCH  19  20
ENDBRANCH  15  19
TORSDOF 6
ENDMDL
MODEL      495
REMARK  Name = ZINC29918098
REMARK  8 active torsions:
REMARK  status: ('A' for Active; 'I' for Inactive)
REMARK    1  A    between atoms: C_1  and  N_2
REMARK    2  A    between atoms: N_2  and  C_3
REMARK    3  A    between atoms: C_6  and  C_11
REMARK    4  A    between atoms: C_11  and  S_12
REMARK    5  A    between atoms: S_12  and  C_13
REMARK    6  A    between atoms: C_16  and  C_18
REMARK    7  A    between atoms: C_18  and  S_19
REMARK    8  A    between atoms: S_19  and  C_20
REMARK                            x       y       z     vdW  Elec       q    Type
REMARK                         _______ _______ _______ _____ _____    ______ ____
ROOT
ATOM      1  C   UNL     1      -9.801   0.782  10.862  0.00  0.00    +0.000 C 
ATOM      2  N   UNL     1      -9.253   0.906   9.509  0.00  0.00    +0.000 N 
ATOM      3  C   UNL     1      -9.969   0.322   8.372  0.00  0.00    +0.000 C 
ATOM      4  C   UNL     1      -8.062   1.573   9.306  0.00  0.00    +0.000 A 
ATOM      5  N   UNL     1      -7.566   1.691   8.076  0.00  0.00    +0.000 NA
ATOM      6  C   UNL     1      -6.423   2.325   7.881  0.00  0.00    +0.000 A 
ATOM      7  N   UNL     1      -5.774   2.853   8.903  0.00  0.00    +0.000 NA
ATOM      8  C   UNL     1      -6.266   2.744  10.135  0.00  0.00    +0.000 A 
ATOM      9  N   UNL     1      -7.412   2.103  10.336  0.00  0.00    +0.000 NA
ATOM     10  N   UNL     1      -5.587   3.295  11.202  0.00  0.00    +0.000 N 
ATOM     11  H   UNL     1      -4.698   3.792  11.045  0.00  0.00    +0.000 HD
ATOM     12  H   UNL     1      -5.968   3.211  12.155  0.00  0.00    +0.000 HD
ENDROOT
BRANCH   6  13
ATOM     13  C   UNL     1      -5.862   2.451   6.488  0.00  0.00    +0.000 C 
BRANCH  13  14
ATOM     14  S   UNL     1      -4.782   1.040   6.142  0.00  0.00    +0.000 S 
BRANCH  14  15
ATOM     15  C   UNL     1      -4.281   1.435   4.499  0.00  0.00    +0.000 A 
ATOM     16  N   UNL     1      -4.647   2.486   3.805  0.00  0.00    +0.000 NA
ATOM     17  N   UNL     1      -4.083   2.450   2.650  0.00  0.00    +0.000 NA
ATOM     18  C   UNL     1      -3.349   1.380   2.556  0.00  0.00    +0.000 A 
ATOM     19  O   UNL     1      -3.451   0.713   3.723  0.00  0.00    +0.000 OA
BRANCH  18  20
ATOM     20  C   UNL     1      -2.527   0.966   1.363  0.00  0.00    +0.000 C 
BRANCH  20  21
ATOM     21  S   UNL     1      -0.862   1.671   1.500  0.00  0.00    +0.000 S 
ATOM     22  C   UNL     1      -0.013   1.086   0.008  0.00  0.00    +0.000 C 
ENDBRANCH  20  21
ENDBRANCH  18  20
ENDBRANCH  14  15
ENDBRANCH  13  14
ENDBRANCH   6  13
TORSDOF 5
ENDMDL
MODEL      496
REMARK  Name = ZINC15459548
REMARK  8 active torsions:
REMARK  status: ('A' for Active; 'I' for Inactive)
REMARK    1  A    between atoms: C_1  and  O_2
REMARK    2  A    between atoms: O_2  and  C_3
REMARK    3  A    between atoms: C_6  and  N_11
REMARK    4  A    between atoms: C_8  and  O_9
REMARK    5  A    between atoms: O_9  and  C_10
REMARK    6  A    between atoms: C_12  and  C_14
REMARK    7  A    between atoms: C_14  and  N_15
REMARK    8  A    between atoms: C_20  and  C_21
REMARK                            x       y       z     vdW  Elec       q    Type
REMARK                         _______ _______ _______ _____ _____    ______ ____
ROOT
ATOM      1  N   UNL     1      -2.499   3.808   0.370  0.00  0.00    +0.000 N 
ATOM      2  C   UNL     1      -3.652   3.127   0.227  0.00  0.00    +0.000 C 
ATOM      3  O   UNL     1      -3.673   1.926   0.398  0.00  0.00    +0.000 OA
ATOM      4  H   UNL     1      -2.496   4.836   0.301  0.00  0.00    +0.000 HD
ENDROOT
BRANCH   1   8
ATOM      5  C   UNL     1       1.061   1.751   1.083  0.00  0.00    +0.000 A 
ATOM      6  C   UNL     1       0.075   1.180   0.295  0.00  0.00    +0.000 A 
ATOM      7  C   UNL     1      -1.101   1.863   0.054  0.00  0.00    +0.000 A 
ATOM      8  C   UNL     1      -1.303   3.119   0.611  0.00  0.00    +0.000 A 
ATOM      9  C   UNL     1      -0.317   3.695   1.401  0.00  0.00    +0.000 A 
ATOM     10  C   UNL     1       0.865   3.013   1.637  0.00  0.00    +0.000 A 
BRANCH  10  11
ATOM     11  O   UNL     1       1.831   3.574   2.411  0.00  0.00    +0.000 OA
ATOM     12  C   UNL     1       1.561   4.871   2.948  0.00  0.00    +0.000 C 
ENDBRANCH  10  11
BRANCH   5  14
ATOM     13  C   UNL     1       2.356  -0.210   0.713  0.00  0.00    +0.000 C 
ATOM     14  O   UNL     1       2.222   1.080   1.314  0.00  0.00    +0.000 OA
ENDBRANCH   5  14
ENDBRANCH   1   8
BRANCH   2  15
ATOM     15  C   UNL     1      -4.918   3.856  -0.145  0.00  0.00    +0.000 C 
BRANCH  15  16
ATOM     16  N   UNL     1      -6.023   2.900  -0.238  0.00  0.00    +0.000 N 
ATOM     17  C   UNL     1      -6.419   2.489  -1.423  0.00  0.00    +0.000 A 
ATOM     18  C   UNL     1      -7.458   1.581  -1.552  0.00  0.00    +0.000 A 
ATOM     19  C   UNL     1      -8.093   1.110  -0.413  0.00  0.00    +0.000 A 
ATOM     20  C   UNL     1      -7.659   1.563   0.822  0.00  0.00    +0.000 A 
ATOM     21  C   UNL     1      -6.605   2.473   0.877  0.00  0.00    +0.000 A 
BRANCH  21  22
ATOM     22  C   UNL     1      -6.129   2.968   2.189  0.00  0.00    +0.000 C 
ATOM     23  O   UNL     1      -5.158   3.696   2.249  0.00  0.00    +0.000 OA
ATOM     24  N   UNL     1      -6.773   2.611   3.318  0.00  0.00    +0.000 N 
ATOM     25  H   UNL     1      -7.596   1.994   3.268  0.00  0.00    +0.000 HD
ATOM     26  H   UNL     1      -6.442   2.955   4.231  0.00  0.00    +0.000 HD
ENDBRANCH  21  22
ENDBRANCH  15  16
ENDBRANCH   2  15
TORSDOF 6
ENDMDL
MODEL      497
REMARK  Name = ZINC31720173
REMARK  7 active torsions:
REMARK  status: ('A' for Active; 'I' for Inactive)
REMARK    1  A    between atoms: C_4  and  C_7
REMARK    2  A    between atoms: C_7  and  O_8
REMARK    3  A    between atoms: O_8  and  C_9
REMARK    4  A    between atoms: N_11  and  C_12
REMARK    5  A    between atoms: C_13  and  N_14
REMARK    6  A    between atoms: C_13  and  N_15
REMARK    7  A    between atoms: C_19  and  C_20
REMARK                            x       y       z     vdW  Elec       q    Type
REMARK                         _______ _______ _______ _____ _____    ______ ____
ROOT
ATOM      1  C   UNL     1       2.913   5.329   0.003  0.00  0.00    +0.000 C 
ATOM      2  C   UNL     1       4.383   5.661  -0.009  0.00  0.00    +0.000 C 
ENDROOT
BRANCH   2   3
ATOM      3  N   UNL     1       4.790   6.969  -0.006  0.00  0.00    +0.000 NA
ATOM      4  C   UNL     1       3.901   8.146   0.002  0.00  0.00    +0.000 C 
ATOM      5  C   UNL     1       4.747   9.289  -0.607  0.00  0.00    +0.000 C 
ATOM      6  C   UNL     1       6.155   8.976  -0.037  0.00  0.00    +0.000 C 
ATOM      7  C   UNL     1       6.185   7.433  -0.017  0.00  0.00    +0.000 C 
ATOM      8  H   UNL     1       4.484   5.986   0.019  0.00  0.00    +0.000 HD
BRANCH   7   9
ATOM      9  C   UNL     1       6.895   6.949   1.221  0.00  0.00    +0.000 C 
ATOM     10  O   UNL     1       6.302   6.284   2.037  0.00  0.00    +0.000 OA
ATOM     11  O   UNL     1       8.186   7.259   1.418  0.00  0.00    +0.000 OA
ENDBRANCH   7   9
ENDBRANCH   2   3
BRANCH   1  14
ATOM     12  C   UNL     1       1.502   3.342   0.006  0.00  0.00    +0.000 C 
ATOM     13  O   UNL     1       0.529   4.069   0.019  0.00  0.00    +0.000 OA
ATOM     14  N   UNL     1       2.740   3.874  -0.003  0.00  0.00    +0.000 N 
ATOM     15  H   UNL     1       3.566   3.258  -0.015  0.00  0.00    +0.000 HD
BRANCH  12  16
ATOM     16  O   UNL     1       1.344   2.005   0.000  0.00  0.00    +0.000 OA
BRANCH  16  17
ATOM     17  C   UNL     1      -0.018   1.503   0.010  0.00  0.00    +0.000 C 
BRANCH  17  21
ATOM     18  C   UNL     1       0.039  -2.768  -0.013  0.00  0.00    +0.000 A 
ATOM     19  C   UNL     1       0.042  -2.084   1.188  0.00  0.00    +0.000 A 
ATOM     20  C   UNL     1       0.023  -0.702   1.195  0.00  0.00    +0.000 A 
ATOM     21  C   UNL     1       0.002  -0.004   0.002  0.00  0.00    +0.000 A 
ATOM     22  C   UNL     1      -0.006  -0.689  -1.199  0.00  0.00    +0.000 A 
ATOM     23  C   UNL     1       0.018  -2.071  -1.206  0.00  0.00    +0.000 A 
ENDBRANCH  17  21
ENDBRANCH  16  17
ENDBRANCH  12  16
ENDBRANCH   1  14
BRANCH   2  24
ATOM     24  N   UNL     1       5.260   4.711  -0.023  0.00  0.00    +0.000 N 
ATOM     25  H   UNL     1       4.954   3.728  -0.025  0.00  0.00    +0.000 HD
ATOM     26  H   UNL     1       6.265   4.938  -0.031  0.00  0.00    +0.000 HD
ENDBRANCH   2  24
TORSDOF 7
ENDMDL
MODEL      498
REMARK  Name = ZINC30270329
REMARK  10 active torsions:
REMARK  status: ('A' for Active; 'I' for Inactive)
REMARK    1  A    between atoms: C_1  and  C_2
REMARK    2  A    between atoms: C_2  and  C_3
REMARK    3  A    between atoms: C_3  and  C_4
REMARK    4  A    between atoms: C_4  and  C_5
REMARK    5  A    between atoms: C_4  and  N_6
REMARK    6  A    between atoms: N_6  and  C_7
REMARK    7  A    between atoms: N_6  and  C_8
REMARK    8  A    between atoms: C_8  and  C_9
REMARK    9  A    between atoms: N_11  and  N_12
REMARK   10  A    between atoms: C_18  and  C_21
REMARK                            x       y       z     vdW  Elec       q    Type
REMARK                         _______ _______ _______ _____ _____    ______ ____
ROOT
ATOM      1  C   UNL     1      -1.277   2.080   0.200  0.00  0.00    +0.000 C 
ATOM      2  O   UNL     1      -1.441   3.275   0.070  0.00  0.00    +0.000 OA
ATOM      3  N   UNL     1      -0.031   1.581   0.328  0.00  0.00    +0.000 N 
ATOM      4  H   UNL     1       0.109   0.567   0.442  0.00  0.00    +0.000 HD
ENDROOT
BRANCH   3   5
ATOM      5  N   UNL     1       1.074   2.442   0.306  0.00  0.00    +0.000 N 
ATOM      6  C   UNL     1       1.786   2.790   1.398  0.00  0.00    +0.000 C 
ATOM      7  O   UNL     1       1.600   2.430   2.541  0.00  0.00    +0.000 OA
ATOM      8  C   UNL     1       2.866   3.721   0.896  0.00  0.00    +0.000 C 
ATOM      9  C   UNL     1       4.245   3.133   1.173  0.00  0.00    +0.000 C 
ATOM     10  C   UNL     1       5.323   4.077   0.633  0.00  0.00    +0.000 C 
ATOM     11  C   UNL     1       5.188   5.443   1.308  0.00  0.00    +0.000 C 
ATOM     12  C   UNL     1       3.809   6.030   1.000  0.00  0.00    +0.000 C 
ATOM     13  C   UNL     1       2.725   5.095   1.541  0.00  0.00    +0.000 C 
ATOM     14  C   UNL     1       6.272   6.383   0.777  0.00  0.00    +0.000 C 
ATOM     15  N   UNL     1       2.622   3.803  -0.550  0.00  0.00    +0.000 NA
ATOM     16  C   UNL     1       1.557   3.018  -0.802  0.00  0.00    +0.000 C 
ATOM     17  O   UNL     1       1.086   2.853  -1.910  0.00  0.00    +0.000 OA
ENDBRANCH   3   5
BRANCH   1  18
ATOM     18  C   UNL     1      -2.465   1.153   0.217  0.00  0.00    +0.000 C 
BRANCH  18  19
ATOM     19  N   UNL     1      -3.698   1.935   0.061  0.00  0.00    +0.000 N 
ATOM     20  C   UNL     1      -3.762   2.560  -1.267  0.00  0.00    +0.000 C 
ATOM     21  H   UNL     1      -3.687   2.688   0.764  0.00  0.00    +0.000 HD
BRANCH  19  22
ATOM     22  C   UNL     1      -4.884   1.104   0.309  0.00  0.00    +0.000 C 
ATOM     23  C   UNL     1      -4.798  -0.171  -0.533  0.00  0.00    +0.000 C 
BRANCH  22  24
ATOM     24  C   UNL     1      -4.945   0.732   1.792  0.00  0.00    +0.000 C 
BRANCH  24  26
ATOM     25  C   UNL     1      -5.291   1.623   4.100  0.00  0.00    +0.000 C 
ATOM     26  C   UNL     1      -5.105   2.002   2.630  0.00  0.00    +0.000 C 
ENDBRANCH  24  26
ENDBRANCH  22  24
ENDBRANCH  19  22
ENDBRANCH  18  19
ENDBRANCH   1  18
TORSDOF 6
ENDMDL
MODEL      499
REMARK  Name = ZINC13654552
REMARK  7 active torsions:
REMARK  status: ('A' for Active; 'I' for Inactive)
REMARK    1  A    between atoms: C_1  and  C_2
REMARK    2  A    between atoms: C_3  and  C_12
REMARK    3  A    between atoms: C_12  and  C_13
REMARK    4  A    between atoms: C_13  and  C_14
REMARK    5  A    between atoms: N_16  and  C_17
REMARK    6  A    between atoms: C_17  and  C_18
REMARK    7  A    between atoms: C_18  and  C_19
REMARK                            x       y       z     vdW  Elec       q    Type
REMARK                         _______ _______ _______ _____ _____    ______ ____
ROOT
ATOM      1  C   UNL     1      -2.538   3.718   0.045  0.00  0.00    +0.000 C 
ENDROOT
BRANCH   1   4
ATOM      2  C   UNL     1      -2.495   0.855   0.019  0.00  0.00    +0.000 C 
ATOM      3  C   UNL     1      -1.202   1.629   0.017  0.00  0.00    +0.000 A 
ATOM      4  C   UNL     1      -1.224   2.981   0.029  0.00  0.00    +0.000 A 
ATOM      5  C   UNL     1      -0.008   3.697   0.022  0.00  0.00    +0.000 A 
ATOM      6  O   UNL     1      -0.015   4.915   0.029  0.00  0.00    +0.000 OA
ATOM      7  N   UNL     1       1.158   3.028   0.007  0.00  0.00    +0.000 N 
ATOM      8  C   UNL     1       1.172   1.667  -0.000  0.00  0.00    +0.000 A 
ATOM      9  N   UNL     1      -0.011   0.966   0.007  0.00  0.00    +0.000 N 
ATOM     10  N   UNL     1       2.433   1.285  -0.014  0.00  0.00    +0.000 NA
ATOM     11  C   UNL     1       3.228   2.353  -0.016  0.00  0.00    +0.000 A 
ATOM     12  N   UNL     1       2.498   3.438  -0.003  0.00  0.00    +0.000 NA
ATOM     13  H   UNL     1       0.003  -0.064   0.006  0.00  0.00    +0.000 HD
ENDBRANCH   1   4
BRANCH   1  14
ATOM     14  C   UNL     1      -2.908   4.070   1.487  0.00  0.00    +0.000 C 
BRANCH  14  15
ATOM     15  C   UNL     1      -4.222   4.807   1.504  0.00  0.00    +0.000 C 
ATOM     16  O   UNL     1      -4.806   5.029   0.464  0.00  0.00    +0.000 OA
ATOM     17  N   UNL     1      -4.749   5.219   2.673  0.00  0.00    +0.000 N 
ATOM     18  H   UNL     1      -4.254   5.030   3.557  0.00  0.00    +0.000 HD
BRANCH  17  19
ATOM     19  C   UNL     1      -6.027   5.936   2.689  0.00  0.00    +0.000 C 
BRANCH  19  20
ATOM     20  C   UNL     1      -6.397   6.287   4.131  0.00  0.00    +0.000 C 
BRANCH  20  21
ATOM     21  C   UNL     1      -7.711   7.024   4.147  0.00  0.00    +0.000 A 
ATOM     22  C   UNL     1      -8.803   6.680   4.856  0.00  0.00    +0.000 A 
ATOM     23  N   UNL     1      -9.765   7.615   4.582  0.00  0.00    +0.000 N 
ATOM     24  C   UNL     1      -9.226   8.499   3.714  0.00  0.00    +0.000 A 
ATOM     25  N   UNL     1      -7.997   8.142   3.463  0.00  0.00    +0.000 NA
ATOM     26  H   UNL     1     -10.720   7.639   4.965  0.00  0.00    +0.000 HD
ENDBRANCH  20  21
ENDBRANCH  19  20
ENDBRANCH  17  19
ENDBRANCH  14  15
ENDBRANCH   1  14
TORSDOF 6
ENDMDL
MODEL      500
REMARK  Name = ZINC31848873
REMARK  7 active torsions:
REMARK  status: ('A' for Active; 'I' for Inactive)
REMARK    1  A    between atoms: C_1  and  N_2
REMARK    2  A    between atoms: C_4  and  C_10
REMARK    3  A    between atoms: C_6  and  C_7
REMARK    4  A    between atoms: C_10  and  C_12
REMARK    5  A    between atoms: C_12  and  S_13
REMARK    6  A    between atoms: S_13  and  C_14
REMARK    7  A    between atoms: N_18  and  C_19
REMARK                            x       y       z     vdW  Elec       q    Type
REMARK                         _______ _______ _______ _____ _____    ______ ____
ROOT
ATOM      1  C   UNL     1      -6.063   0.427   0.038  0.00  0.00    +0.000 C 
ATOM      2  O   UNL     1      -6.730  -0.579  -0.085  0.00  0.00    +0.000 OA
ENDROOT
BRANCH   1   6
ATOM      3  C   UNL     1      -1.436  -1.443   0.246  0.00  0.00    +0.000 C 
ATOM      4  N   UNL     1      -2.556  -0.499   0.232  0.00  0.00    +0.000 N 
ATOM      5  C   UNL     1      -3.849  -0.831   0.110  0.00  0.00    +0.000 A 
ATOM      6  C   UNL     1      -4.604   0.331   0.140  0.00  0.00    +0.000 A 
ATOM      7  C   UNL     1      -3.697   1.408   0.293  0.00  0.00    +0.000 A 
ATOM      8  C   UNL     1      -2.446   0.871   0.341  0.00  0.00    +0.000 A 
BRANCH   8   9
ATOM      9  C   UNL     1      -1.194   1.623   0.490  0.00  0.00    +0.000 C 
ATOM     10  O   UNL     1      -0.126   1.043   0.438  0.00  0.00    +0.000 OA
ATOM     11  N   UNL     1      -1.228   2.956   0.685  0.00  0.00    +0.000 N 
ATOM     12  H   UNL     1      -2.132   3.447   0.730  0.00  0.00    +0.000 HD
ATOM     13  H   UNL     1      -0.349   3.484   0.790  0.00  0.00    +0.000 HD
ENDBRANCH   8   9
ENDBRANCH   1   6
BRANCH   1  14
ATOM     14  C   UNL     1      -6.735   1.775   0.088  0.00  0.00    +0.000 C 
BRANCH  14  15
ATOM     15  S   UNL     1      -8.526   1.563  -0.061  0.00  0.00    +0.000 S 
BRANCH  15  16
ATOM     16  C   UNL     1      -9.042   3.245   0.025  0.00  0.00    +0.000 A 
ATOM     17  N   UNL     1      -8.263   4.295   0.166  0.00  0.00    +0.000 NA
ATOM     18  N   UNL     1      -8.961   5.373   0.187  0.00  0.00    +0.000 NA
ATOM     19  N   UNL     1     -10.215   5.098   0.074  0.00  0.00    +0.000 NA
ATOM     20  N   UNL     1     -10.316   3.700  -0.037  0.00  0.00    +0.000 N 
BRANCH  20  21
ATOM     21  C   UNL     1     -11.538   2.906  -0.185  0.00  0.00    +0.000 C 
ATOM     22  C   UNL     1     -12.845   3.661  -0.434  0.00  0.00    +0.000 C 
ATOM     23  C   UNL     1     -12.586   3.007   0.925  0.00  0.00    +0.000 C 
ENDBRANCH  20  21
ENDBRANCH  15  16
ENDBRANCH  14  15
ENDBRANCH   1  14
TORSDOF 6
ENDMDL
MODEL      501
REMARK  Name = ZINC05838504
REMARK  10 active torsions:
REMARK  status: ('A' for Active; 'I' for Inactive)
REMARK    1  A    between atoms: C_1  and  C_2
REMARK    2  A    between atoms: C_2  and  C_3
REMARK    3  A    between atoms: C_3  and  C_4
REMARK    4  A    between atoms: C_4  and  N_23
REMARK    5  A    between atoms: C_5  and  N_23
REMARK    6  A    between atoms: C_6  and  C_21
REMARK    7  A    between atoms: C_8  and  N_11
REMARK    8  A    between atoms: C_9  and  O_10
REMARK    9  A    between atoms: C_19  and  N_20
REMARK   10  A    between atoms: C_21  and  O_22
REMARK                            x       y       z     vdW  Elec       q    Type
REMARK                         _______ _______ _______ _____ _____    ______ ____
ROOT
ATOM      1  C   UNL     1      -4.311  -1.379  -1.376  0.00  0.00    +0.000 C 
ATOM      2  C   UNL     1      -4.433  -1.858   0.087  0.00  0.00    +0.000 C 
ATOM      3  O   UNL     1      -3.072  -1.943   0.563  0.00  0.00    +0.000 OA
ATOM      4  C   UNL     1      -2.407  -0.782   0.021  0.00  0.00    +0.000 C 
ATOM      5  C   UNL     1      -2.946  -0.654  -1.420  0.00  0.00    +0.000 C 
ENDROOT
BRANCH   4   6
ATOM      6  N   UNL     1      -0.956  -0.986   0.007  0.00  0.00    +0.000 N 
ATOM      7  C   UNL     1      -0.311  -2.187  -0.006  0.00  0.00    +0.000 A 
ATOM      8  N   UNL     1       0.977  -1.999  -0.017  0.00  0.00    +0.000 NA
ATOM      9  C   UNL     1       1.239  -0.670  -0.013  0.00  0.00    +0.000 A 
ATOM     10  C   UNL     1       0.002  -0.004   0.002  0.00  0.00    +0.000 A 
ATOM     11  N   UNL     1      -0.016   1.325   0.009  0.00  0.00    +0.000 NA
ATOM     12  C   UNL     1       1.107   2.011   0.002  0.00  0.00    +0.000 A 
ATOM     13  N   UNL     1       2.293   1.430  -0.013  0.00  0.00    +0.000 NA
ATOM     14  C   UNL     1       2.410   0.106  -0.021  0.00  0.00    +0.000 A 
BRANCH  14  15
ATOM     15  N   UNL     1       3.658  -0.494  -0.036  0.00  0.00    +0.000 N 
ATOM     16  H   UNL     1       3.725  -1.522  -0.043  0.00  0.00    +0.000 HD
ATOM     17  H   UNL     1       4.512   0.081  -0.042  0.00  0.00    +0.000 HD
ENDBRANCH  14  15
ENDBRANCH   4   6
BRANCH   1  18
ATOM     18  N   UNL     1      -5.400  -0.440  -1.706  0.00  0.00    +0.000 N 
ATOM     19  H   UNL     1      -5.636   0.115  -0.871  0.00  0.00    +0.000 HD
ATOM     20  H   UNL     1      -5.088   0.194  -2.455  0.00  0.00    +0.000 HD
BRANCH  18  21
ATOM     21  C   UNL     1      -6.594  -1.179  -2.157  0.00  0.00    +0.000 C 
BRANCH  21  22
ATOM     22  C   UNL     1      -7.705  -0.182  -2.491  0.00  0.00    +0.000 C 
BRANCH  22  24
ATOM     23  C   UNL     1     -10.058   0.057  -3.295  0.00  0.00    +0.000 C 
ATOM     24  C   UNL     1      -8.948  -0.941  -2.960  0.00  0.00    +0.000 C 
ENDBRANCH  22  24
ENDBRANCH  21  22
ENDBRANCH  18  21
ENDBRANCH   1  18
BRANCH   5  25
ATOM     25  O   UNL     1      -2.067  -1.299  -2.343  0.00  0.00    +0.000 OA
ATOM     26  H   UNL     1      -2.477  -1.286  -3.244  0.00  0.00    +0.000 HD
ENDBRANCH   5  25
BRANCH   2  27
ATOM     27  C   UNL     1      -5.104  -3.232   0.143  0.00  0.00    +0.000 C 
BRANCH  27  28
ATOM     28  O   UNL     1      -5.246  -3.638   1.506  0.00  0.00    +0.000 OA
ATOM     29  H   UNL     1      -5.804  -2.979   1.990  0.00  0.00    +0.000 HD
ENDBRANCH  27  28
ENDBRANCH   2  27
TORSDOF 9
ENDMDL
MODEL      502
REMARK  Name = ZINC04288705
REMARK  6 active torsions:
REMARK  status: ('A' for Active; 'I' for Inactive)
REMARK    1  A    between atoms: N_6  and  C_18
REMARK    2  A    between atoms: C_7  and  C_9
REMARK    3  A    between atoms: C_9  and  C_10
REMARK    4  A    between atoms: N_11  and  O_12
REMARK    5  A    between atoms: O_12  and  C_13
REMARK    6  A    between atoms: C_13  and  C_15
REMARK                            x       y       z     vdW  Elec       q    Type
REMARK                         _______ _______ _______ _____ _____    ______ ____
ROOT
ATOM      1  C   UNL     1       3.561   4.487   2.288  0.00  0.00    +0.000 A 
ATOM      2  C   UNL     1       4.408   3.421   2.017  0.00  0.00    +0.000 A 
ATOM      3  C   UNL     1       3.846   2.199   1.665  0.00  0.00    +0.000 A 
ATOM      4  C   UNL     1       2.458   2.084   1.597  0.00  0.00    +0.000 A 
ATOM      5  C   UNL     1       2.196   4.302   2.200  0.00  0.00    +0.000 A 
ATOM      6  N   UNL     1       2.111   0.783   1.229  0.00  0.00    +0.000 N 
ATOM      7  C   UNL     1       3.362   0.026   1.054  0.00  0.00    +0.000 C 
ATOM      8  N   UNL     1       4.444   0.975   1.344  0.00  0.00    +0.000 N 
ATOM      9  N   UNL     1       1.608   3.124   1.860  0.00  0.00    +0.000 NA
ATOM     10  H   UNL     1       5.455   0.776   1.317  0.00  0.00    +0.000 HD
ENDROOT
BRANCH   6  11
ATOM     11  C   UNL     1       1.317   0.779  -0.006  0.00  0.00    +0.000 C 
ATOM     12  C   UNL     1      -0.019   1.526   0.010  0.00  0.00    +0.000 C 
ATOM     13  C   UNL     1       0.002  -0.004   0.002  0.00  0.00    +0.000 C 
ENDBRANCH   6  11
BRANCH   7  14
ATOM     14  C   UNL     1       3.475  -0.481  -0.385  0.00  0.00    +0.000 C 
BRANCH  14  15
ATOM     15  C   UNL     1       4.696  -1.355  -0.515  0.00  0.00    +0.000 C 
ATOM     16  N   UNL     1       5.453  -1.565   0.513  0.00  0.00    +0.000 NA
ATOM     17  N   UNL     1       5.006  -1.928  -1.726  0.00  0.00    +0.000 N 
ATOM     18  H   UNL     1       4.404  -1.760  -2.544  0.00  0.00    +0.000 HD
ATOM     19  H   UNL     1       5.841  -2.525  -1.814  0.00  0.00    +0.000 HD
BRANCH  16  20
ATOM     20  O   UNL     1       6.440  -2.271   0.408  0.00  0.00    +0.000 OA
BRANCH  20  21
ATOM     21  C   UNL     1       7.181  -2.449   1.511  0.00  0.00    +0.000 C 
ATOM     22  O   UNL     1       6.857  -1.917   2.551  0.00  0.00    +0.000 OA
BRANCH  21  23
ATOM     23  C   UNL     1       8.417  -3.309   1.458  0.00  0.00    +0.000 C 
ATOM     24 CL   UNL     1       9.191  -3.352   3.086  0.00  0.00    +0.000 Cl
ENDBRANCH  21  23
ENDBRANCH  20  21
ENDBRANCH  16  20
ENDBRANCH  14  15
ENDBRANCH   7  14
TORSDOF 6
ENDMDL
MODEL      503
REMARK  Name = ZINC06368275
REMARK  8 active torsions:
REMARK  status: ('A' for Active; 'I' for Inactive)
REMARK    1  A    between atoms: C_1  and  O_2
REMARK    2  A    between atoms: O_2  and  C_3
REMARK    3  A    between atoms: C_3  and  C_5
REMARK    4  A    between atoms: C_5  and  C_6
REMARK    5  A    between atoms: C_6  and  C_7
REMARK    6  A    between atoms: C_7  and  N_16
REMARK    7  A    between atoms: N_16  and  C_17
REMARK    8  A    between atoms: C_20  and  N_23
REMARK                            x       y       z     vdW  Elec       q    Type
REMARK                         _______ _______ _______ _____ _____    ______ ____
ROOT
ATOM      1  C   UNL     1       2.365  -2.808   0.025  0.00  0.00    +0.000 C 
ATOM      2  C   UNL     1       3.615  -2.296   0.351  0.00  0.00    +0.000 C 
ATOM      3  C   UNL     1       4.645  -3.174   0.769  0.00  0.00    +0.000 C 
ATOM      4  O   UNL     1       4.430  -4.366   0.842  0.00  0.00    +0.000 OA
ATOM      5  C   UNL     1       6.008  -2.636   1.118  0.00  0.00    +0.000 C 
ATOM      6  C   UNL     1       5.866  -1.215   1.669  0.00  0.00    +0.000 C 
ATOM      7  C   UNL     1       5.196  -0.330   0.615  0.00  0.00    +0.000 C 
ATOM      8  C   UNL     1       3.845  -0.901   0.268  0.00  0.00    +0.000 C 
ATOM      9  O   UNL     1       2.950  -0.161  -0.086  0.00  0.00    +0.000 OA
ENDROOT
BRANCH   1  10
ATOM     10  N   UNL     1       1.343  -1.972  -0.237  0.00  0.00    +0.000 N 
ATOM     11  H   UNL     1       1.035  -1.296   0.477  0.00  0.00    +0.000 HD
BRANCH  10  12
ATOM     12  C   UNL     1       0.699  -2.022  -1.478  0.00  0.00    +0.000 A 
ATOM     13  C   UNL     1      -0.448  -1.269  -1.696  0.00  0.00    +0.000 A 
ATOM     14  C   UNL     1      -1.083  -1.318  -2.921  0.00  0.00    +0.000 A 
ATOM     15  C   UNL     1      -0.575  -2.119  -3.935  0.00  0.00    +0.000 A 
ATOM     16  C   UNL     1       0.573  -2.872  -3.717  0.00  0.00    +0.000 A 
ATOM     17  C   UNL     1       1.208  -2.823  -2.493  0.00  0.00    +0.000 A 
BRANCH  15  18
ATOM     18  N   UNL     1      -1.218  -2.168  -5.176  0.00  0.00    +0.000 N 
ATOM     19  H   UNL     1      -2.068  -1.610  -5.338  0.00  0.00    +0.000 HD
ATOM     20  H   UNL     1      -0.841  -2.762  -5.928  0.00  0.00    +0.000 HD
ENDBRANCH  15  18
ENDBRANCH  10  12
ENDBRANCH   1  10
BRANCH   1  21
ATOM     21  C   UNL     1       2.153  -4.299  -0.035  0.00  0.00    +0.000 C 
BRANCH  21  22
ATOM     22  C   UNL     1       1.781  -4.818   1.355  0.00  0.00    +0.000 C 
BRANCH  22  23
ATOM     23  C   UNL     1       1.570  -6.309   1.295  0.00  0.00    +0.000 C 
ATOM     24  O   UNL     1       1.703  -6.896   0.247  0.00  0.00    +0.000 OA
BRANCH  23  26
ATOM     25  C   UNL     1       1.046  -8.418   2.272  0.00  0.00    +0.000 C 
ATOM     26  O   UNL     1       1.233  -6.984   2.405  0.00  0.00    +0.000 OA
ENDBRANCH  23  26
ENDBRANCH  22  23
ENDBRANCH  21  22
ENDBRANCH   1  21
TORSDOF 7
ENDMDL
MODEL      504
REMARK  Name = ZINC22805363
REMARK  7 active torsions:
REMARK  status: ('A' for Active; 'I' for Inactive)
REMARK    1  A    between atoms: C_1  and  O_2
REMARK    2  A    between atoms: O_2  and  C_3
REMARK    3  A    between atoms: C_3  and  C_4
REMARK    4  A    between atoms: C_4  and  N_5
REMARK    5  A    between atoms: C_6  and  C_8
REMARK    6  A    between atoms: C_8  and  N_9
REMARK    7  A    between atoms: N_12  and  C_15
REMARK                            x       y       z     vdW  Elec       q    Type
REMARK                         _______ _______ _______ _____ _____    ______ ____
ROOT
ATOM      1  N   UNL     1       0.160   7.241   2.675  0.00  0.00    +0.000 NA
ATOM      2  C   UNL     1       1.273   7.868   3.402  0.00  0.00    +0.000 C 
ATOM      3  C   UNL     1       1.137   9.391   3.321  0.00  0.00    +0.000 C 
ATOM      4  N   UNL     1      -0.155   9.796   3.890  0.00  0.00    +0.000 NA
ATOM      5  C   UNL     1      -1.268   9.168   3.164  0.00  0.00    +0.000 C 
ATOM      6  C   UNL     1      -1.132   7.646   3.245  0.00  0.00    +0.000 C 
ENDROOT
BRANCH   4   7
ATOM      7  C   UNL     1      -0.291  11.259   3.900  0.00  0.00    +0.000 C 
ATOM      8  C   UNL     1       0.816  11.873   4.760  0.00  0.00    +0.000 C 
ATOM      9  C   UNL     1       1.134  10.974   5.944  0.00  0.00    +0.000 C 
ATOM     10  C   UNL     1       0.004  10.856   6.950  0.00  0.00    +0.000 C 
ATOM     11  C   UNL     1      -1.193  10.122   6.343  0.00  0.00    +0.000 C 
ATOM     12  N   UNL     1      -2.038  11.100   5.639  0.00  0.00    +0.000 N 
ATOM     13  C   UNL     1      -1.632  11.642   4.490  0.00  0.00    +0.000 C 
ATOM     14  O   UNL     1      -2.338  12.443   3.916  0.00  0.00    +0.000 OA
ATOM     15  H   UNL     1      -2.950  11.368   6.037  0.00  0.00    +0.000 HD
ENDBRANCH   4   7
BRANCH   1  16
ATOM     16  C   UNL     1       0.296   5.778   2.666  0.00  0.00    +0.000 C 
BRANCH  16  18
ATOM     17  N   UNL     1       1.834   4.091   1.713  0.00  0.00    +0.000 N 
ATOM     18  C   UNL     1       1.510   5.391   1.861  0.00  0.00    +0.000 C 
ATOM     19  O   UNL     1       2.194   6.250   1.345  0.00  0.00    +0.000 OA
ATOM     20  H   UNL     1       1.253   3.363   2.151  0.00  0.00    +0.000 HD
BRANCH  17  21
ATOM     21  C   UNL     1       3.014   3.716   0.930  0.00  0.00    +0.000 C 
BRANCH  21  22
ATOM     22  C   UNL     1       3.155   2.192   0.920  0.00  0.00    +0.000 C 
BRANCH  22  24
ATOM     23  C   UNL     1       2.079   0.188   0.165  0.00  0.00    +0.000 C 
ATOM     24  O   UNL     1       2.044   1.615   0.232  0.00  0.00    +0.000 OA
ENDBRANCH  22  24
ENDBRANCH  21  22
ENDBRANCH  17  21
ENDBRANCH  16  18
ENDBRANCH   1  16
TORSDOF 6
ENDMDL
MODEL      505
REMARK  Name = ZINC00051140
REMARK  6 active torsions:
REMARK  status: ('A' for Active; 'I' for Inactive)
REMARK    1  A    between atoms: C_1  and  C_2
REMARK    2  A    between atoms: C_2  and  O_3
REMARK    3  A    between atoms: O_3  and  C_4
REMARK    4  A    between atoms: C_4  and  C_6
REMARK    5  A    between atoms: C_7  and  C_17
REMARK    6  A    between atoms: C_17  and  N_23
REMARK                            x       y       z     vdW  Elec       q    Type
REMARK                         _______ _______ _______ _____ _____    ______ ____
ROOT
ATOM      1  C   UNL     1       5.351  -0.900   1.274  0.00  0.00    +0.000 A 
ATOM      2  C   UNL     1       4.435  -0.185   1.993  0.00  0.00    +0.000 A 
ATOM      3  N   UNL     1       5.071   0.916   2.449  0.00  0.00    +0.000 N 
ATOM      4  N   UNL     1       6.394   0.838   1.993  0.00  0.00    +0.000 NA
ATOM      5  N   UNL     1       6.523  -0.241   1.303  0.00  0.00    +0.000 NA
ATOM      6  C   UNL     1       4.516   1.937   3.229  0.00  0.00    +0.000 A 
ATOM      7  C   UNL     1       5.224   3.126   3.716  0.00  0.00    +0.000 A 
ATOM      8  N   UNL     1       4.385   3.848   4.406  0.00  0.00    +0.000 NA
ATOM      9  O   UNL     1       3.134   3.184   4.401  0.00  0.00    +0.000 OA
ATOM     10  N   UNL     1       3.282   1.996   3.643  0.00  0.00    +0.000 NA
ATOM     11  N   UNL     1       6.560   3.430   3.482  0.00  0.00    +0.000 N 
ATOM     12  H   UNL     1       7.080   2.746   2.914  0.00  0.00    +0.000 HD
ATOM     13  H   UNL     1       7.015   4.280   3.845  0.00  0.00    +0.000 HD
ENDROOT
BRANCH   1  14
ATOM     14  C   UNL     1       5.097  -2.178   0.585  0.00  0.00    +0.000 C 
ATOM     15  O   UNL     1       3.993  -2.683   0.628  0.00  0.00    +0.000 OA
BRANCH  14  16
ATOM     16  O   UNL     1       6.090  -2.787  -0.093  0.00  0.00    +0.000 OA
BRANCH  16  18
ATOM     17  C   UNL     1       7.011  -4.578  -1.461  0.00  0.00    +0.000 C 
ATOM     18  C   UNL     1       5.768  -4.042  -0.748  0.00  0.00    +0.000 C 
ENDBRANCH  16  18
ENDBRANCH  14  16
ENDBRANCH   1  14
BRANCH   2  19
ATOM     19  C   UNL     1       2.991  -0.550   2.226  0.00  0.00    +0.000 C 
BRANCH  19  25
ATOM     20  C   UNL     1       0.793  -0.505   1.212  0.00  0.00    +0.000 C 
ATOM     21  C   UNL     1       0.002  -0.004   0.002  0.00  0.00    +0.000 C 
ATOM     22  C   UNL     1      -0.019   1.527   0.010  0.00  0.00    +0.000 C 
ATOM     23  C   UNL     1       1.421   2.049  -0.001  0.00  0.00    +0.000 C 
ATOM     24  C   UNL     1       2.171   1.488   1.210  0.00  0.00    +0.000 C 
ATOM     25  N   UNL     1       2.176   0.012   1.129  0.00  0.00    +0.000 NA
ENDBRANCH  19  25
ENDBRANCH   2  19
TORSDOF 5
ENDMDL
MODEL      506
REMARK  Name = ZINC10906176
REMARK  10 active torsions:
REMARK  status: ('A' for Active; 'I' for Inactive)
REMARK    1  A    between atoms: C_1  and  C_2
REMARK    2  A    between atoms: C_4  and  C_23
REMARK    3  A    between atoms: C_6  and  N_12
REMARK    4  A    between atoms: C_13  and  C_15
REMARK    5  A    between atoms: C_15  and  N_24
REMARK    6  A    between atoms: C_16  and  C_17
REMARK    7  A    between atoms: C_16  and  N_24
REMARK    8  A    between atoms: C_20  and  C_21
REMARK    9  A    between atoms: C_20  and  C_22
REMARK   10  A    between atoms: C_20  and  N_24
REMARK                            x       y       z     vdW  Elec       q    Type
REMARK                         _______ _______ _______ _____ _____    ______ ____
ROOT
ATOM      1  N   UNL     1      -2.592   0.956   4.096  0.00  0.00    +0.000 N 
ATOM      2  C   UNL     1      -2.625  -0.364   4.364  0.00  0.00    +0.000 C 
ATOM      3  O   UNL     1      -2.111  -1.152   3.598  0.00  0.00    +0.000 OA
ATOM      4  H   UNL     1      -3.028   1.625   4.747  0.00  0.00    +0.000 HD
ENDROOT
BRANCH   1  10
ATOM      5  C   UNL     1      -0.105   4.023  -0.692  0.00  0.00    +0.000 C 
ATOM      6  C   UNL     1      -0.855   3.984   0.614  0.00  0.00    +0.000 A 
ATOM      7  C   UNL     1      -1.122   2.702   1.272  0.00  0.00    +0.000 A 
ATOM      8  C   UNL     1      -0.865   1.401   1.022  0.00  0.00    +0.000 A 
ATOM      9  O   UNL     1      -1.369   0.652   2.020  0.00  0.00    +0.000 OA
ATOM     10  C   UNL     1      -1.972   1.414   2.946  0.00  0.00    +0.000 A 
ATOM     11  C   UNL     1      -1.868   2.726   2.555  0.00  0.00    +0.000 A 
ATOM     12  C   UNL     1      -2.284   4.027   3.069  0.00  0.00    +0.000 A 
ATOM     13  O   UNL     1      -2.896   4.113   4.119  0.00  0.00    +0.000 OA
ATOM     14  N   UNL     1      -1.966   5.134   2.365  0.00  0.00    +0.000 N 
ATOM     15  N   UNL     1      -1.267   5.086   1.162  0.00  0.00    +0.000 NA
ATOM     16  C   UNL     1      -0.124   0.872  -0.179  0.00  0.00    +0.000 C 
ATOM     17  H   UNL     1      -2.252   6.052   2.734  0.00  0.00    +0.000 HD
ENDBRANCH   1  10
BRANCH   2  18
ATOM     18  C   UNL     1      -3.300  -0.863   5.616  0.00  0.00    +0.000 C 
BRANCH  18  19
ATOM     19  N   UNL     1      -3.296  -2.341   5.600  0.00  0.00    +0.000 NA
BRANCH  19  20
ATOM     20  C   UNL     1      -4.314  -2.859   6.538  0.00  0.00    +0.000 C 
ATOM     21  C   UNL     1      -4.188  -2.171   7.899  0.00  0.00    +0.000 C 
ATOM     22  C   UNL     1      -5.703  -2.587   5.956  0.00  0.00    +0.000 C 
ENDBRANCH  19  20
BRANCH  19  23
ATOM     23  C   UNL     1      -1.959  -2.847   5.975  0.00  0.00    +0.000 C 
BRANCH  23  24
ATOM     24  C   UNL     1      -1.919  -4.335   5.738  0.00  0.00    +0.000 C 
ATOM     25  O   UNL     1      -2.902  -4.909   5.320  0.00  0.00    +0.000 OA
ATOM     26  N   UNL     1      -0.790  -5.027   5.991  0.00  0.00    +0.000 N 
ATOM     27  H   UNL     1       0.044  -4.539   6.346  0.00  0.00    +0.000 HD
ATOM     28  H   UNL     1      -0.762  -6.044   5.829  0.00  0.00    +0.000 HD
ENDBRANCH  23  24
ENDBRANCH  19  23
ENDBRANCH  18  19
ENDBRANCH   2  18
TORSDOF 6
ENDMDL
MODEL      507
REMARK  Name = ZINC28996368
REMARK  6 active torsions:
REMARK  status: ('A' for Active; 'I' for Inactive)
REMARK    1  A    between atoms: C_6  and  O_7
REMARK    2  A    between atoms: O_7  and  C_8
REMARK    3  A    between atoms: C_8  and  C_9
REMARK    4  A    between atoms: C_9  and  N_10
REMARK    5  A    between atoms: N_13  and  N_14
REMARK    6  A    between atoms: C_15  and  C_17
REMARK                            x       y       z     vdW  Elec       q    Type
REMARK                         _______ _______ _______ _____ _____    ______ ____
ROOT
ATOM      1  N   UNL     1       1.568   6.018   1.270  0.00  0.00    +0.000 N 
ATOM      2  C   UNL     1       1.277   7.313   1.502  0.00  0.00    +0.000 C 
ATOM      3  O   UNL     1       1.542   8.155   0.667  0.00  0.00    +0.000 OA
ATOM      4  N   UNL     1       0.692   7.675   2.662  0.00  0.00    +0.000 N 
ATOM      5  H   UNL     1       1.343   5.304   1.978  0.00  0.00    +0.000 HD
ATOM      6  H   UNL     1       0.470   8.665   2.839  0.00  0.00    +0.000 HD
ENDROOT
BRANCH   4   7
ATOM      7  N   UNL     1       0.386   6.705   3.625  0.00  0.00    +0.000 N 
ATOM      8  C   UNL     1      -0.199   7.066   4.784  0.00  0.00    +0.000 C 
ATOM      9  O   UNL     1      -0.461   8.234   4.993  0.00  0.00    +0.000 OA
ATOM     10  H   UNL     1       0.608   5.715   3.447  0.00  0.00    +0.000 HD
BRANCH   8  11
ATOM     11  C   UNL     1      -0.522   6.040   5.802  0.00  0.00    +0.000 A 
ATOM     12  C   UNL     1      -1.128   6.412   7.002  0.00  0.00    +0.000 A 
ATOM     13  N   UNL     1      -1.414   5.494   7.907  0.00  0.00    +0.000 NA
ATOM     14  C   UNL     1      -1.128   4.224   7.675  0.00  0.00    +0.000 A 
ATOM     15  C   UNL     1      -0.526   3.851   6.483  0.00  0.00    +0.000 A 
ATOM     16  N   UNL     1      -0.241   4.761   5.572  0.00  0.00    +0.000 NA
ENDBRANCH   8  11
ENDBRANCH   4   7
BRANCH   1  17
ATOM     17  C   UNL     1       2.204   5.625   0.010  0.00  0.00    +0.000 C 
BRANCH  17  18
ATOM     18  C   UNL     1       2.423   4.111   0.001  0.00  0.00    +0.000 C 
BRANCH  18  19
ATOM     19  O   UNL     1       1.158   3.446   0.009  0.00  0.00    +0.000 OA
BRANCH  19  25
ATOM     20  C   UNL     1      -0.017   1.377   0.010  0.00  0.00    +0.000 A 
ATOM     21  C   UNL     1       0.002  -0.004   0.002  0.00  0.00    +0.000 A 
ATOM     22  C   UNL     1       1.210  -0.681  -0.013  0.00  0.00    +0.000 A 
ATOM     23  C   UNL     1       2.401   0.026  -0.021  0.00  0.00    +0.000 A 
ATOM     24  C   UNL     1       2.385   1.407  -0.013  0.00  0.00    +0.000 A 
ATOM     25  C   UNL     1       1.175   2.087   0.002  0.00  0.00    +0.000 A 
ATOM     26  F   UNL     1       1.227  -2.031  -0.020  0.00  0.00    +0.000 F 
ENDBRANCH  19  25
ENDBRANCH  18  19
ENDBRANCH  17  18
ENDBRANCH   1  17
TORSDOF 6
ENDMDL
MODEL      508
REMARK  Name = ZINC20266998
REMARK  9 active torsions:
REMARK  status: ('A' for Active; 'I' for Inactive)
REMARK    1  A    between atoms: C_1  and  C_2
REMARK    2  A    between atoms: C_2  and  C_3
REMARK    3  A    between atoms: C_3  and  N_4
REMARK    4  A    between atoms: N_4  and  C_5
REMARK    5  A    between atoms: C_5  and  C_6
REMARK    6  A    between atoms: C_6  and  N_7
REMARK    7  A    between atoms: N_7  and  C_8
REMARK    8  A    between atoms: N_7  and  C_9
REMARK    9  A    between atoms: N_15  and  C_18
REMARK                            x       y       z     vdW  Elec       q    Type
REMARK                         _______ _______ _______ _____ _____    ______ ____
ROOT
ATOM      1  C   UNL     1       0.153   5.077   1.479  0.00  0.00    +0.000 C 
ATOM      2  C   UNL     1       0.135   4.196   0.257  0.00  0.00    +0.000 C 
ATOM      3  C   UNL     1      -1.194   3.466   0.222  0.00  0.00    +0.000 C 
ATOM      4  N   UNL     1      -1.173   2.158   0.211  0.00  0.00    +0.000 N 
ATOM      5  C   UNL     1      -0.037   1.454   0.242  0.00  0.00    +0.000 C 
ATOM      6  O   UNL     1      -0.125   0.240   0.235  0.00  0.00    +0.000 OA
ATOM      7  N   UNL     1       1.191   1.986   0.275  0.00  0.00    +0.000 N 
ATOM      8  C   UNL     1       1.378   3.325   0.285  0.00  0.00    +0.000 C 
ATOM      9  O   UNL     1       2.489   3.809   0.314  0.00  0.00    +0.000 OA
ATOM     10  O   UNL     1      -2.354   4.140   0.196  0.00  0.00    +0.000 OA
ATOM     11  H   UNL     1      -2.068   1.649   0.178  0.00  0.00    +0.000 HD
ENDROOT
BRANCH   7  12
ATOM     12  C   UNL     1       2.306   1.138   0.300  0.00  0.00    +0.000 A 
ATOM     13  C   UNL     1       2.559   0.353   1.417  0.00  0.00    +0.000 A 
ATOM     14  C   UNL     1       3.656  -0.486   1.436  0.00  0.00    +0.000 A 
ATOM     15  C   UNL     1       4.509  -0.536   0.349  0.00  0.00    +0.000 A 
ATOM     16  C   UNL     1       4.263   0.248  -0.763  0.00  0.00    +0.000 A 
ATOM     17  C   UNL     1       3.164   1.085  -0.791  0.00  0.00    +0.000 A 
ENDBRANCH   7  12
BRANCH   1  19
ATOM     18  C   UNL     1      -2.011   5.596   2.573  0.00  0.00    +0.000 C 
ATOM     19  C   UNL     1      -0.906   6.134   1.661  0.00  0.00    +0.000 C 
ENDBRANCH   1  19
BRANCH   1  20
ATOM     20  N   UNL     1       1.068   4.929   2.361  0.00  0.00    +0.000 N 
ATOM     21  H   UNL     1       1.837   4.265   2.199  0.00  0.00    +0.000 HD
BRANCH  20  22
ATOM     22  C   UNL     1       1.020   5.706   3.603  0.00  0.00    +0.000 C 
BRANCH  22  23
ATOM     23  C   UNL     1       2.211   6.665   3.651  0.00  0.00    +0.000 C 
BRANCH  23  24
ATOM     24  N   UNL     1       2.163   7.443   4.896  0.00  0.00    +0.000 N 
ATOM     25  C   UNL     1       3.407   8.200   5.091  0.00  0.00    +0.000 C 
ATOM     26  C   UNL     1       0.996   8.334   4.915  0.00  0.00    +0.000 C 
ATOM     27  H   UNL     1       2.069   6.781   5.679  0.00  0.00    +0.000 HD
ENDBRANCH  23  24
ENDBRANCH  22  23
ENDBRANCH  20  22
ENDBRANCH   1  20
TORSDOF 6
ENDMDL
MODEL      509
REMARK  Name = ZINC07518893
REMARK  7 active torsions:
REMARK  status: ('A' for Active; 'I' for Inactive)
REMARK    1  A    between atoms: C_5  and  O_7
REMARK    2  A    between atoms: O_7  and  C_8
REMARK    3  A    between atoms: C_8  and  C_10
REMARK    4  A    between atoms: C_13  and  C_16
REMARK    5  A    between atoms: C_18  and  C_21
REMARK    6  A    between atoms: C_21  and  C_22
REMARK    7  A    between atoms: C_22  and  N_24
REMARK                            x       y       z     vdW  Elec       q    Type
REMARK                         _______ _______ _______ _____ _____    ______ ____
ROOT
ATOM      1  C   UNL     1      -4.965   3.627   0.118  0.00  0.00    +0.000 A 
ATOM      2  C   UNL     1      -5.182   4.987   0.074  0.00  0.00    +0.000 A 
ATOM      3  C   UNL     1      -4.103   5.863   0.013  0.00  0.00    +0.000 A 
ATOM      4  C   UNL     1      -2.794   5.349  -0.003  0.00  0.00    +0.000 A 
ATOM      5  C   UNL     1      -2.588   3.965   0.042  0.00  0.00    +0.000 A 
ATOM      6  C   UNL     1      -3.676   3.115   0.097  0.00  0.00    +0.000 A 
ATOM      7  C   UNL     1      -1.903   6.509  -0.069  0.00  0.00    +0.000 A 
ATOM      8  C   UNL     1      -2.682   7.602  -0.088  0.00  0.00    +0.000 A 
ATOM      9  N   UNL     1      -4.000   7.236  -0.040  0.00  0.00    +0.000 N 
ATOM     10  H   UNL     1      -4.796   7.889  -0.042  0.00  0.00    +0.000 HD
ENDROOT
BRANCH   5  11
ATOM     11  O   UNL     1      -1.326   3.461   0.027  0.00  0.00    +0.000 OA
BRANCH  11  12
ATOM     12  C   UNL     1      -0.700   3.343   1.214  0.00  0.00    +0.000 C 
ATOM     13  O   UNL     1      -1.228   3.765   2.223  0.00  0.00    +0.000 OA
BRANCH  12  14
ATOM     14  C   UNL     1       0.629   2.699   1.288  0.00  0.00    +0.000 A 
ATOM     15  C   UNL     1       1.233   2.209   0.129  0.00  0.00    +0.000 A 
ATOM     16  C   UNL     1       2.470   1.604   0.199  0.00  0.00    +0.000 A 
ATOM     17  C   UNL     1       3.118   1.482   1.429  0.00  0.00    +0.000 A 
ATOM     18  C   UNL     1       2.514   1.972   2.588  0.00  0.00    +0.000 A 
ATOM     19  C   UNL     1       1.278   2.577   2.518  0.00  0.00    +0.000 A 
BRANCH  17  20
ATOM     20  C   UNL     1       4.445   0.833   1.504  0.00  0.00    +0.000 C 
ATOM     21  O   UNL     1       5.010   0.726   2.574  0.00  0.00    +0.000 OA
ATOM     22  O   UNL     1       5.028   0.359   0.386  0.00  0.00    +0.000 OA
ENDBRANCH  17  20
ENDBRANCH  12  14
ENDBRANCH  11  12
ENDBRANCH   5  11
BRANCH   7  23
ATOM     23  C   UNL     1      -0.397   6.481  -0.108  0.00  0.00    +0.000 C 
BRANCH  23  24
ATOM     24  C   UNL     1       0.073   6.293  -1.552  0.00  0.00    +0.000 C 
BRANCH  24  25
ATOM     25  N   UNL     1       1.546   6.245  -1.575  0.00  0.00    +0.000 N 
ATOM     26  H   UNL     1       1.877   5.456  -1.002  0.00  0.00    +0.000 HD
ATOM     27  H   UNL     1       1.928   7.126  -1.203  0.00  0.00    +0.000 HD
ATOM     28  H   UNL     1       1.867   6.118  -2.545  0.00  0.00    +0.000 HD
ENDBRANCH  24  25
ENDBRANCH  23  24
ENDBRANCH   7  23
TORSDOF 7
ENDMDL
MODEL      510
REMARK  Name = ZINC15775177
REMARK  10 active torsions:
REMARK  status: ('A' for Active; 'I' for Inactive)
REMARK    1  A    between atoms: C_1  and  C_2
REMARK    2  A    between atoms: C_5  and  N_8
REMARK    3  A    between atoms: C_12  and  C_14
REMARK    4  A    between atoms: C_14  and  C_15
REMARK    5  A    between atoms: C_14  and  O_21
REMARK    6  A    between atoms: C_15  and  C_16
REMARK    7  A    between atoms: C_15  and  O_20
REMARK    8  A    between atoms: C_16  and  C_17
REMARK    9  A    between atoms: C_16  and  O_19
REMARK   10  A    between atoms: C_17  and  O_18
REMARK                            x       y       z     vdW  Elec       q    Type
REMARK                         _______ _______ _______ _____ _____    ______ ____
ROOT
ATOM      1  N   UNL     1      -5.098   3.464   5.319  0.00  0.00    +0.000 N 
ATOM      2  C   UNL     1      -4.307   2.756   4.426  0.00  0.00    +0.000 A 
ATOM      3  N   UNL     1      -3.510   1.716   4.630  0.00  0.00    +0.000 NA
ATOM      4  N   UNL     1      -2.858   1.183   3.691  0.00  0.00    +0.000 NA
ATOM      5  C   UNL     1      -2.917   1.631   2.453  0.00  0.00    +0.000 A 
ATOM      6  S   UNL     1      -4.070   2.984   2.666  0.00  0.00    +0.000 S 
ATOM      7  H   UNL     1      -5.594   4.311   5.009  0.00  0.00    +0.000 HD
ENDROOT
BRANCH   1  12
ATOM      8  C   UNL     1      -5.595   1.694  10.685  0.00  0.00    +0.000 C 
ATOM      9  C   UNL     1      -5.463   2.164   9.259  0.00  0.00    +0.000 A 
ATOM     10  C   UNL     1      -5.667   3.497   8.950  0.00  0.00    +0.000 A 
ATOM     11  C   UNL     1      -5.547   3.931   7.645  0.00  0.00    +0.000 A 
ATOM     12  C   UNL     1      -5.221   3.028   6.641  0.00  0.00    +0.000 A 
ATOM     13  C   UNL     1      -5.023   1.689   6.954  0.00  0.00    +0.000 A 
ATOM     14  C   UNL     1      -5.139   1.262   8.262  0.00  0.00    +0.000 A 
ENDBRANCH   1  12
BRANCH   5  15
ATOM     15  C   UNL     1      -2.220   1.139   1.211  0.00  0.00    +0.000 C 
BRANCH  15  16
ATOM     16  O   UNL     1      -2.295  -0.287   1.155  0.00  0.00    +0.000 OA
ATOM     17  H   UNL     1      -3.244  -0.568   1.133  0.00  0.00    +0.000 HD
ENDBRANCH  15  16
BRANCH  15  18
ATOM     18  C   UNL     1      -0.752   1.571   1.245  0.00  0.00    +0.000 C 
BRANCH  18  19
ATOM     19  O   UNL     1      -0.677   2.997   1.301  0.00  0.00    +0.000 OA
ATOM     20  H   UNL     1      -1.135   3.321   2.117  0.00  0.00    +0.000 HD
ENDBRANCH  18  19
BRANCH  18  21
ATOM     21  C   UNL     1      -0.044   1.072  -0.015  0.00  0.00    +0.000 C 
BRANCH  21  22
ATOM     22  O   UNL     1      -0.747   1.533  -1.171  0.00  0.00    +0.000 OA
ATOM     23  H   UNL     1      -0.765   2.523  -1.174  0.00  0.00    +0.000 HD
ENDBRANCH  21  22
BRANCH  21  24
ATOM     24  C   UNL     1       1.389   1.609  -0.042  0.00  0.00    +0.000 C 
BRANCH  24  25
ATOM     25  O   UNL     1       2.086   1.050  -1.157  0.00  0.00    +0.000 OA
ATOM     26  H   UNL     1       1.625   1.301  -1.996  0.00  0.00    +0.000 HD
ENDBRANCH  24  25
ENDBRANCH  21  24
ENDBRANCH  18  21
ENDBRANCH  15  18
ENDBRANCH   5  15
TORSDOF 9
ENDMDL
MODEL      511
REMARK  Name = ZINC01590182
REMARK  9 active torsions:
REMARK  status: ('A' for Active; 'I' for Inactive)
REMARK    1  A    between atoms: C_4  and  N_19
REMARK    2  A    between atoms: C_6  and  C_12
REMARK    3  A    between atoms: C_12  and  N_22
REMARK    4  A    between atoms: C_13  and  C_14
REMARK    5  A    between atoms: C_13  and  N_22
REMARK    6  A    between atoms: C_14  and  O_15
REMARK    7  A    between atoms: C_16  and  C_17
REMARK    8  A    between atoms: C_16  and  N_22
REMARK    9  A    between atoms: C_17  and  O_18
REMARK                            x       y       z     vdW  Elec       q    Type
REMARK                         _______ _______ _______ _____ _____    ______ ____
ROOT
ATOM      1  C   UNL     1      -3.967   3.005   7.264  0.00  0.00    +0.000 A 
ATOM      2  C   UNL     1      -2.947   3.759   6.756  0.00  0.00    +0.000 A 
ATOM      3  C   UNL     1      -2.173   3.213   5.715  0.00  0.00    +0.000 A 
ATOM      4  C   UNL     1      -1.109   3.930   5.143  0.00  0.00    +0.000 A 
ATOM      5  C   UNL     1      -0.382   3.370   4.137  0.00  0.00    +0.000 A 
ATOM      6  C   UNL     1      -0.677   2.094   3.665  0.00  0.00    +0.000 A 
ATOM      7  C   UNL     1      -1.707   1.369   4.193  0.00  0.00    +0.000 A 
ATOM      8  C   UNL     1      -2.479   1.915   5.240  0.00  0.00    +0.000 A 
ATOM      9  N   UNL     1      -3.491   1.230   5.780  0.00  0.00    +0.000 NA
ATOM     10  C   UNL     1      -4.215   1.734   6.750  0.00  0.00    +0.000 A 
ATOM     11  O   UNL     1      -1.984   0.128   3.716  0.00  0.00    +0.000 OA
ENDROOT
BRANCH   4  12
ATOM     12  N   UNL     1      -0.779   5.288   5.632  0.00  0.00    +0.000 N 
ATOM     13  O   UNL     1      -0.454   6.157   4.842  0.00  0.00    +0.000 OA
ATOM     14  O   UNL     1      -0.833   5.536   6.823  0.00  0.00    +0.000 OA
ENDBRANCH   4  12
BRANCH   6  15
ATOM     15  C   UNL     1       0.149   1.505   2.550  0.00  0.00    +0.000 C 
BRANCH  15  16
ATOM     16  N   UNL     1      -0.646   1.533   1.305  0.00  0.00    +0.000 N 
ATOM     17  H   UNL     1      -1.608   1.229   1.516  0.00  0.00    +0.000 HD
BRANCH  16  18
ATOM     18  C   UNL     1      -0.686   2.907   0.762  0.00  0.00    +0.000 C 
BRANCH  18  19
ATOM     19  C   UNL     1      -1.691   2.953  -0.391  0.00  0.00    +0.000 C 
BRANCH  19  20
ATOM     20  O   UNL     1      -3.002   2.679   0.108  0.00  0.00    +0.000 OA
ATOM     21  H   UNL     1      -3.246   3.359   0.786  0.00  0.00    +0.000 HD
ENDBRANCH  19  20
ENDBRANCH  18  19
ENDBRANCH  16  18
BRANCH  16  22
ATOM     22  C   UNL     1      -0.059   0.613   0.309  0.00  0.00    +0.000 C 
BRANCH  22  23
ATOM     23  C   UNL     1      -0.373  -0.826   0.725  0.00  0.00    +0.000 C 
BRANCH  23  24
ATOM     24  O   UNL     1      -1.788  -1.030   0.700  0.00  0.00    +0.000 OA
ATOM     25  H   UNL     1      -2.129  -0.870  -0.215  0.00  0.00    +0.000 HD
ENDBRANCH  23  24
ENDBRANCH  22  23
ENDBRANCH  16  22
ENDBRANCH  15  16
ENDBRANCH   6  15
TORSDOF 9
ENDMDL
MODEL      512
REMARK  Name = ZINC27654081
REMARK  9 active torsions:
REMARK  status: ('A' for Active; 'I' for Inactive)
REMARK    1  A    between atoms: N_5  and  C_6
REMARK    2  A    between atoms: C_6  and  O_7
REMARK    3  A    between atoms: O_7  and  C_8
REMARK    4  A    between atoms: C_8  and  C_9
REMARK    5  A    between atoms: C_9  and  O_10
REMARK    6  A    between atoms: O_10  and  C_11
REMARK    7  A    between atoms: C_11  and  C_13
REMARK    8  A    between atoms: C_13  and  C_14
REMARK    9  A    between atoms: C_14  and  N_15
REMARK                            x       y       z     vdW  Elec       q    Type
REMARK                         _______ _______ _______ _____ _____    ______ ____
ROOT
ATOM      1  C   UNL     1       1.309  -0.395  -0.013  0.00  0.00    +0.000 A 
ATOM      2  N   UNL     1       2.086   0.648  -0.014  0.00  0.00    +0.000 NA
ATOM      3  C   UNL     1       1.329   1.774  -0.001  0.00  0.00    +0.000 A 
ATOM      4  C   UNL     1      -0.017   1.368   0.010  0.00  0.00    +0.000 A 
ATOM      5  N   UNL     1       0.002  -0.004   0.002  0.00  0.00    +0.000 N 
ATOM      6  N   UNL     1      -0.971   2.292   0.024  0.00  0.00    +0.000 NA
ATOM      7  C   UNL     1      -0.662   3.578   0.020  0.00  0.00    +0.000 A 
ATOM      8  N   UNL     1       0.595   4.004   0.010  0.00  0.00    +0.000 N 
ATOM      9  C   UNL     1       1.609   3.149  -0.001  0.00  0.00    +0.000 A 
ATOM     10  O   UNL     1       2.889   3.594  -0.010  0.00  0.00    +0.000 OA
ATOM     11  N   UNL     1      -1.684   4.512   0.026  0.00  0.00    +0.000 N 
ATOM     12  H   UNL     1       0.787   5.016   0.010  0.00  0.00    +0.000 HD
ATOM     13  H   UNL     1      -2.670   4.215   0.034  0.00  0.00    +0.000 HD
ATOM     14  H   UNL     1      -1.454   5.516   0.023  0.00  0.00    +0.000 HD
ENDROOT
BRANCH   5  15
ATOM     15  C   UNL     1      -1.167  -0.887   0.008  0.00  0.00    +0.000 C 
BRANCH  15  16
ATOM     16  O   UNL     1      -0.735  -2.249  -0.003  0.00  0.00    +0.000 OA
BRANCH  16  17
ATOM     17  C   UNL     1      -1.804  -3.197   0.002  0.00  0.00    +0.000 C 
BRANCH  17  18
ATOM     18  C   UNL     1      -1.228  -4.615  -0.011  0.00  0.00    +0.000 C 
BRANCH  18  19
ATOM     19  O   UNL     1      -0.498  -4.852   1.222  0.00  0.00    +0.000 OA
BRANCH  19  20
ATOM     20  C   UNL     1       0.073  -6.058   1.369  0.00  0.00    +0.000 C 
ATOM     21  O   UNL     1      -0.034  -6.888   0.497  0.00  0.00    +0.000 OA
BRANCH  20  22
ATOM     22  C   UNL     1       0.847  -6.377   2.622  0.00  0.00    +0.000 C 
BRANCH  22  23
ATOM     23  C   UNL     1       1.390  -7.805   2.537  0.00  0.00    +0.000 C 
BRANCH  23  24
ATOM     24  N   UNL     1       2.144  -8.115   3.758  0.00  0.00    +0.000 N 
ATOM     25  H   UNL     1       1.524  -8.033   4.576  0.00  0.00    +0.000 HD
ATOM     26  H   UNL     1       2.929  -7.456   3.855  0.00  0.00    +0.000 HD
ATOM     27  H   UNL     1       2.510  -9.077   3.701  0.00  0.00    +0.000 HD
ENDBRANCH  23  24
ENDBRANCH  22  23
ENDBRANCH  20  22
ENDBRANCH  19  20
ENDBRANCH  18  19
ENDBRANCH  17  18
ENDBRANCH  16  17
ENDBRANCH  15  16
ENDBRANCH   5  15
TORSDOF 9
ENDMDL
MODEL      513
REMARK  Name = ZINC31904736
REMARK  10 active torsions:
REMARK  status: ('A' for Active; 'I' for Inactive)
REMARK    1  A    between atoms: C_1  and  C_2
REMARK    2  A    between atoms: N_4  and  C_15
REMARK    3  A    between atoms: N_7  and  C_10
REMARK    4  A    between atoms: C_10  and  C_11
REMARK    5  A    between atoms: C_11  and  C_12
REMARK    6  A    between atoms: C_12  and  C_13
REMARK    7  A    between atoms: C_13  and  O_14
REMARK    8  A    between atoms: C_17  and  N_22
REMARK    9  A    between atoms: C_18  and  C_20
REMARK   10  A    between atoms: C_20  and  O_21
REMARK                            x       y       z     vdW  Elec       q    Type
REMARK                         _______ _______ _______ _____ _____    ______ ____
ROOT
ATOM      1  C   UNL     1       1.193  -2.862  -4.250  0.00  0.00    +0.000 C 
ATOM      2  C   UNL     1       1.811  -1.777  -3.407  0.00  0.00    +0.000 A 
ATOM      3  C   UNL     1       1.390  -1.572  -2.140  0.00  0.00    +0.000 A 
ATOM      4  N   UNL     1       1.962  -0.582  -1.388  0.00  0.00    +0.000 N 
ATOM      5  C   UNL     1       2.936   0.192  -1.901  0.00  0.00    +0.000 A 
ATOM      6  O   UNL     1       3.427   1.069  -1.216  0.00  0.00    +0.000 OA
ATOM      7  N   UNL     1       3.378   0.006  -3.159  0.00  0.00    +0.000 N 
ATOM      8  C   UNL     1       2.840  -0.959  -3.932  0.00  0.00    +0.000 A 
ATOM      9  O   UNL     1       3.236  -1.125  -5.072  0.00  0.00    +0.000 OA
ENDROOT
BRANCH   4  10
ATOM     10  C   UNL     1       1.506  -0.359  -0.014  0.00  0.00    +0.000 C 
ATOM     11  C   UNL     1       0.002  -0.004   0.002  0.00  0.00    +0.000 C 
ATOM     12  C   UNL     1      -0.019   1.541   0.011  0.00  0.00    +0.000 C 
ATOM     13  C   UNL     1       1.474   1.937  -0.002  0.00  0.00    +0.000 C 
ATOM     14  O   UNL     1       2.163   0.795   0.553  0.00  0.00    +0.000 OA
BRANCH  12  15
ATOM     15  N   UNL     1      -0.672   2.039   1.224  0.00  0.00    +0.000 NA
ATOM     16  N   UNL     1      -1.769   1.856   1.387  0.00  0.00    +0.000 NA
ATOM     17  N   UNL     1      -2.866   1.673   1.550  0.00  0.00    +0.000 NA
ENDBRANCH  12  15
BRANCH  13  18
ATOM     18  C   UNL     1       1.705   3.173   0.870  0.00  0.00    +0.000 C 
BRANCH  18  19
ATOM     19  O   UNL     1       3.066   3.591   0.753  0.00  0.00    +0.000 OA
ATOM     20  H   UNL     1       3.265   3.812  -0.191  0.00  0.00    +0.000 HD
ENDBRANCH  18  19
ENDBRANCH  13  18
ENDBRANCH   4  10
BRANCH   7  21
ATOM     21  C   UNL     1       4.443   0.859  -3.691  0.00  0.00    +0.000 C 
BRANCH  21  22
ATOM     22  C   UNL     1       3.826   2.091  -4.356  0.00  0.00    +0.000 C 
BRANCH  22  23
ATOM     23  C   UNL     1       4.939   2.982  -4.912  0.00  0.00    +0.000 C 
BRANCH  23  24
ATOM     24  C   UNL     1       4.322   4.214  -5.577  0.00  0.00    +0.000 C 
BRANCH  24  25
ATOM     25  O   UNL     1       5.361   5.045  -6.097  0.00  0.00    +0.000 OA
ATOM     26  H   UNL     1       5.887   4.539  -6.765  0.00  0.00    +0.000 HD
ENDBRANCH  24  25
ENDBRANCH  23  24
ENDBRANCH  22  23
ENDBRANCH  21  22
ENDBRANCH   7  21
TORSDOF 9
ENDMDL
MODEL      514
REMARK  Name = ZINC12503528
REMARK  12 active torsions:
REMARK  status: ('A' for Active; 'I' for Inactive)
REMARK    1  A    between atoms: C_1  and  C_2
REMARK    2  A    between atoms: C_1  and  CA_16
REMARK    3  A    between atoms: C_2  and  C_3
REMARK    4  A    between atoms: C_3  and  O_4
REMARK    5  A    between atoms: C_3  and  O_5
REMARK    6  A    between atoms: O_5  and  C_6
REMARK    7  A    between atoms: C_7  and  O_14
REMARK    8  A    between atoms: C_8  and  O_13
REMARK    9  A    between atoms: C_9  and  C_11
REMARK   10  A    between atoms: C_11  and  O_12
REMARK   11  A    between atoms: CA_16  and  C_17
REMARK   12  A    between atoms: CA_16  and  N_20
REMARK                            x       y       z     vdW  Elec       q    Type
REMARK                         _______ _______ _______ _____ _____    ______ ____
ROOT
ATOM      1  O   UNL     1      -1.074   4.290  -0.794  0.00  0.00    +0.000 OA
ENDROOT
BRANCH   1   2
ATOM      2  C   UNL     1      -0.126   3.386  -1.365  0.00  0.00    +0.000 C 
ATOM      3  C   UNL     1       1.218   3.496  -0.618  0.00  0.00    +0.000 C 
ATOM      4  C   UNL     1       1.424   2.091  -0.000  0.00  0.00    +0.000 C 
ATOM      5  C   UNL     1      -0.019   1.526   0.010  0.00  0.00    +0.000 C 
ATOM      6  O   UNL     1      -0.588   2.033  -1.215  0.00  0.00    +0.000 OA
ATOM      7  F   UNL     1       2.252   3.794  -1.512  0.00  0.00    +0.000 F 
BRANCH   4   8
ATOM      8  O   UNL     1       2.279   1.293  -0.822  0.00  0.00    +0.000 OA
ATOM      9  H   UNL     1       3.154   1.748  -0.910  0.00  0.00    +0.000 HD
ENDBRANCH   4   8
BRANCH   3  10
ATOM     10  O   UNL     1       1.140   4.487   0.408  0.00  0.00    +0.000 OA
ATOM     11  H   UNL     1       0.427   4.236   1.047  0.00  0.00    +0.000 HD
ENDBRANCH   3  10
BRANCH   5  12
ATOM     12  C   UNL     1       0.002  -0.004   0.002  0.00  0.00    +0.000 C 
BRANCH  12  13
ATOM     13  O   UNL     1      -1.332  -0.499   0.130  0.00  0.00    +0.000 OA
ATOM     14  H   UNL     1      -1.880  -0.173  -0.628  0.00  0.00    +0.000 HD
ENDBRANCH  12  13
ENDBRANCH   5  12
ENDBRANCH   1   2
BRANCH   1  15
ATOM     15  C   UNL     1      -2.320   4.343  -1.492  0.00  0.00    +0.000 C 
BRANCH  15  16
ATOM     16  O   UNL     1      -3.028   3.117  -1.296  0.00  0.00    +0.000 OA
ATOM     17  H   UNL     1      -3.891   3.152  -1.780  0.00  0.00    +0.000 HD
ENDBRANCH  15  16
BRANCH  15  18
ATOM     18  C   UNL     1      -3.156   5.506  -0.955  0.00  0.00    +0.000 C 
BRANCH  18  19
ATOM     19  C   UNL     1      -4.435   5.640  -1.784  0.00  0.00    +0.000 C 
BRANCH  19  20
ATOM     20  CA  UNL     1      -5.271   6.803  -1.248  0.00  0.00    +0.000 C 
BRANCH  20  21
ATOM     21  N   UNL     1      -4.561   8.080  -1.440  0.00  0.00    +0.000 N 
ATOM     22  H1  UNL     1      -4.383   8.219  -2.445  0.00  0.00    +0.000 HD
ATOM     23  H2  UNL     1      -3.661   8.043  -0.939  0.00  0.00    +0.000 HD
ATOM     24  H3  UNL     1      -5.130   8.857  -1.076  0.00  0.00    +0.000 HD
ENDBRANCH  20  21
BRANCH  20  25
ATOM     25  C   UNL     1      -6.585   6.859  -1.984  0.00  0.00    +0.000 C 
ATOM     26  O   UNL     1      -6.741   7.652  -2.882  0.00  0.00    +0.000 OA
ATOM     27  OXT UNL     1      -7.582   6.028  -1.641  0.00  0.00    +0.000 OA
ENDBRANCH  20  25
ENDBRANCH  19  20
ENDBRANCH  18  19
ENDBRANCH  15  18
ENDBRANCH   1  15
TORSDOF 12
ENDMDL
MODEL      515
REMARK  Name = ZINC20180090
REMARK  8 active torsions:
REMARK  status: ('A' for Active; 'I' for Inactive)
REMARK    1  A    between atoms: C_1  and  C_2
REMARK    2  A    between atoms: C_2  and  N_3
REMARK    3  A    between atoms: N_3  and  C_4
REMARK    4  A    between atoms: N_3  and  S_11
REMARK    5  A    between atoms: S_11  and  C_14
REMARK    6  A    between atoms: C_14  and  C_15
REMARK    7  A    between atoms: C_15  and  C_16
REMARK    8  A    between atoms: C_16  and  N_17
REMARK                            x       y       z     vdW  Elec       q    Type
REMARK                         _______ _______ _______ _____ _____    ______ ____
ROOT
ATOM      1  N   UNL     1      -0.810   1.792   1.310  0.00  0.00    +0.000 NA
ENDROOT
BRANCH   1   2
ATOM      2  C   UNL     1      -0.567   3.164   1.761  0.00  0.00    +0.000 C 
ATOM      3  C   UNL     1       0.156   3.143   3.118  0.00  0.00    +0.000 C 
ATOM      4  C   UNL     1       0.132   4.556   3.750  0.00  0.00    +0.000 C 
ATOM      5  S   UNL     1      -1.403   5.286   3.049  0.00  0.00    +0.000 S 
ATOM      6  O   UNL     1      -1.058   6.410   2.252  0.00  0.00    +0.000 OA
ATOM      7  O   UNL     1      -2.362   5.432   4.088  0.00  0.00    +0.000 OA
ATOM      8  C   UNL     1      -1.922   3.905   1.945  0.00  0.00    +0.000 C 
ENDBRANCH   1   2
BRANCH   1   9
ATOM      9  S   UNL     1      -0.332   1.321  -0.204  0.00  0.00    +0.000 S 
ATOM     10  O   UNL     1      -0.136  -0.083  -0.102  0.00  0.00    +0.000 OA
ATOM     11  O   UNL     1       0.750   2.183  -0.527  0.00  0.00    +0.000 OA
BRANCH   9  12
ATOM     12  C   UNL     1      -1.754   1.676  -1.274  0.00  0.00    +0.000 C 
BRANCH  12  13
ATOM     13  C   UNL     1      -1.422   1.277  -2.713  0.00  0.00    +0.000 C 
BRANCH  13  14
ATOM     14  C   UNL     1      -2.621   1.577  -3.615  0.00  0.00    +0.000 C 
BRANCH  14  15
ATOM     15  N   UNL     1      -2.302   1.193  -4.997  0.00  0.00    +0.000 N 
ATOM     16  H   UNL     1      -2.089   0.186  -5.034  0.00  0.00    +0.000 HD
ATOM     17  H   UNL     1      -1.485   1.729  -5.323  0.00  0.00    +0.000 HD
ATOM     18  H   UNL     1      -3.109   1.395  -5.604  0.00  0.00    +0.000 HD
ENDBRANCH  14  15
ENDBRANCH  13  14
ENDBRANCH  12  13
ENDBRANCH   9  12
ENDBRANCH   1   9
BRANCH   1  20
ATOM     19  C   UNL     1      -0.432   0.130   3.064  0.00  0.00    +0.000 C 
ATOM     20  C   UNL     1      -1.477   0.836   2.197  0.00  0.00    +0.000 C 
ENDBRANCH   1  20
TORSDOF 7
ENDMDL
MODEL      516
REMARK  Name = ZINC29840095
REMARK  11 active torsions:
REMARK  status: ('A' for Active; 'I' for Inactive)
REMARK    1  A    between atoms: C_1  and  C_2
REMARK    2  A    between atoms: C_2  and  C_3
REMARK    3  A    between atoms: C_3  and  C_20
REMARK    4  A    between atoms: N_6  and  N_10
REMARK    5  A    between atoms: C_11  and  C_13
REMARK    6  A    between atoms: C_13  and  N_14
REMARK    7  A    between atoms: N_14  and  C_15
REMARK    8  A    between atoms: N_14  and  C_17
REMARK    9  A    between atoms: C_15  and  C_16
REMARK   10  A    between atoms: C_17  and  C_18
REMARK   11  A    between atoms: C_18  and  O_19
REMARK                            x       y       z     vdW  Elec       q    Type
REMARK                         _______ _______ _______ _____ _____    ______ ____
ROOT
ATOM      1  N   UNL     1       0.901   4.127   2.305  0.00  0.00    +0.000 N 
ATOM      2  C   UNL     1       2.019   4.879   2.312  0.00  0.00    +0.000 C 
ATOM      3  O   UNL     1       2.965   4.565   1.621  0.00  0.00    +0.000 OA
ATOM      4  H   UNL     1       0.098   4.394   2.892  0.00  0.00    +0.000 HD
ENDROOT
BRANCH   1   8
ATOM      5  C   UNL     1       0.346   1.498  -0.166  0.00  0.00    +0.000 C 
ATOM      6  C   UNL     1       0.131   2.906   0.352  0.00  0.00    +0.000 C 
ATOM      7  O   UNL     1      -0.531   3.782  -0.162  0.00  0.00    +0.000 OA
ATOM      8  N   UNL     1       0.831   2.982   1.501  0.00  0.00    +0.000 N 
ATOM      9  C   UNL     1       1.451   1.829   1.779  0.00  0.00    +0.000 C 
ATOM     10  O   UNL     1       2.143   1.654   2.763  0.00  0.00    +0.000 OA
ATOM     11  N   UNL     1       1.224   0.886   0.847  0.00  0.00    +0.000 NA
ATOM     12  C   UNL     1       1.036   1.525  -1.531  0.00  0.00    +0.000 C 
BRANCH   5  14
ATOM     13  C   UNL     1      -0.717  -0.721  -0.603  0.00  0.00    +0.000 C 
ATOM     14  C   UNL     1      -0.983   0.744  -0.252  0.00  0.00    +0.000 C 
ENDBRANCH   5  14
ENDBRANCH   1   8
BRANCH   2  15
ATOM     15  C   UNL     1       2.095   6.111   3.177  0.00  0.00    +0.000 C 
BRANCH  15  16
ATOM     16  N   UNL     1       3.406   6.750   3.006  0.00  0.00    +0.000 NA
BRANCH  16  17
ATOM     17  C   UNL     1       4.465   5.959   3.649  0.00  0.00    +0.000 C 
ATOM     18  C   UNL     1       5.829   6.411   3.124  0.00  0.00    +0.000 C 
ENDBRANCH  16  17
BRANCH  16  19
ATOM     19  C   UNL     1       3.392   8.126   3.519  0.00  0.00    +0.000 C 
BRANCH  19  20
ATOM     20  C   UNL     1       2.712   9.043   2.500  0.00  0.00    +0.000 C 
BRANCH  20  21
ATOM     21  O   UNL     1       1.323   8.716   2.417  0.00  0.00    +0.000 OA
ATOM     22  H   UNL     1       0.901   8.839   3.304  0.00  0.00    +0.000 HD
ENDBRANCH  20  21
ENDBRANCH  19  20
ENDBRANCH  16  19
ENDBRANCH  15  16
ENDBRANCH   2  15
TORSDOF 8
ENDMDL
MODEL      517
REMARK  Name = ZINC05605512
REMARK  7 active torsions:
REMARK  status: ('A' for Active; 'I' for Inactive)
REMARK    1  A    between atoms: C_3  and  C_13
REMARK    2  A    between atoms: C_4  and  N_6
REMARK    3  A    between atoms: N_7  and  S_8
REMARK    4  A    between atoms: S_8  and  C_9
REMARK    5  A    between atoms: C_9  and  C_10
REMARK    6  A    between atoms: C_10  and  C_11
REMARK    7  A    between atoms: C_10  and  N_17
REMARK                            x       y       z     vdW  Elec       q    Type
REMARK                         _______ _______ _______ _____ _____    ______ ____
ROOT
ATOM      1  N   UNK     1      -5.482   2.289   1.289  0.00  0.00    +0.000 NA
ATOM      2  N   UNK     1      -4.209   2.080   1.320  0.00  0.00    +0.000 NA
ENDROOT
BRANCH   1   6
ATOM      3  C   UNK     1      -7.088  -0.790   0.976  0.00  0.00    +0.000 A 
ATOM      4  N   UNK     1      -8.176   0.002   0.999  0.00  0.00    +0.000 N 
ATOM      5  C   UNK     1      -7.734   1.306   1.128  0.00  0.00    +0.000 A 
ATOM      6  C   UNK     1      -6.344   1.236   1.170  0.00  0.00    +0.000 A 
ATOM      7  N   UNK     1      -6.009  -0.062   1.077  0.00  0.00    +0.000 NA
ATOM      8  H   UNK     1      -9.157  -0.307   0.932  0.00  0.00    +0.000 HD
BRANCH   5   9
ATOM      9  C   UNK     1      -8.558   2.512   1.204  0.00  0.00    +0.000 C 
ATOM     10  O   UNK     1      -8.030   3.603   1.315  0.00  0.00    +0.000 OA
ATOM     11  N   UNK     1      -9.901   2.415   1.149  0.00  0.00    +0.000 N 
ATOM     12  H   UNK     1     -10.347   1.492   1.055  0.00  0.00    +0.000 HD
ATOM     13  H   UNK     1     -10.481   3.264   1.202  0.00  0.00    +0.000 HD
ENDBRANCH   5   9
ENDBRANCH   1   6
BRANCH   2  14
ATOM     14  S   UNK     1      -3.225   3.283   1.456  0.00  0.00    +0.000 S 
BRANCH  14  15
ATOM     15  C   UNK     1      -1.646   2.400   1.444  0.00  0.00    +0.000 C 
BRANCH  15  16
ATOM     16  C   UNK     1      -1.329   1.940   0.019  0.00  0.00    +0.000 C 
BRANCH  16  17
ATOM     17  N   UNK     1      -2.414   1.061  -0.452  0.00  0.00    +0.000 N 
ATOM     18  H   UNK     1      -3.306   1.576  -0.449  0.00  0.00    +0.000 HD
ATOM     19  H   UNK     1      -2.489   0.239   0.164  0.00  0.00    +0.000 HD
ATOM     20  H   UNK     1      -2.206   0.748  -1.411  0.00  0.00    +0.000 HD
ENDBRANCH  16  17
BRANCH  16  21
ATOM     21  C   UNK     1      -0.014   1.204   0.009  0.00  0.00    +0.000 C 
ATOM     22  O   UNK     1       0.002  -0.004   0.002  0.00  0.00    +0.000 OA
ATOM     23  O   UNK     1       1.139   1.891   0.001  0.00  0.00    +0.000 OA
ENDBRANCH  16  21
ENDBRANCH  15  16
ENDBRANCH  14  15
ENDBRANCH   2  14
TORSDOF 7
ENDMDL
MODEL      518
REMARK  Name = ZINC05974537
REMARK  7 active torsions:
REMARK  status: ('A' for Active; 'I' for Inactive)
REMARK    1  A    between atoms: C_4  and  C_7
REMARK    2  A    between atoms: C_7  and  N_19
REMARK    3  A    between atoms: CA_8  and  C_9
REMARK    4  A    between atoms: CA_8  and  C_17
REMARK    5  A    between atoms: CA_8  and  N_19
REMARK    6  A    between atoms: C_9  and  C_10
REMARK    7  A    between atoms: C_13  and  C_15
REMARK                            x       y       z     vdW  Elec       q    Type
REMARK                         _______ _______ _______ _____ _____    ______ ____
ROOT
ATOM      1  CA  UNL     1       1.235   3.094   0.007  0.00  0.00    +0.000 C 
ENDROOT
BRANCH   1   2
ATOM      2  C   UNL     1       1.177   1.588  -0.001  0.00  0.00    +0.000 C 
ATOM      3  O   UNL     1       2.199   0.944  -0.014  0.00  0.00    +0.000 OA
ATOM      4  OXT UNL     1      -0.011   0.963   0.007  0.00  0.00    +0.000 OA
ENDBRANCH   1   2
BRANCH   1   5
ATOM      5  N   UNL     1       2.643   3.532   0.005  0.00  0.00    +0.000 N 
ATOM      6  H1  UNL     1       3.207   2.872   0.559  0.00  0.00    +0.000 HD
ATOM      7  H2  UNL     1       2.709   4.469   0.427  0.00  0.00    +0.000 HD
BRANCH   5   8
ATOM      8  C   UNL     1       3.163   3.579  -1.375  0.00  0.00    +0.000 C 
BRANCH   8  12
ATOM      9  C   UNL     1       7.239   4.854  -1.294  0.00  0.00    +0.000 A 
ATOM     10  C   UNL     1       6.934   3.509  -1.212  0.00  0.00    +0.000 A 
ATOM     11  C   UNL     1       5.615   3.096  -1.238  0.00  0.00    +0.000 A 
ATOM     12  C   UNL     1       4.601   4.029  -1.347  0.00  0.00    +0.000 A 
ATOM     13  C   UNL     1       4.906   5.375  -1.434  0.00  0.00    +0.000 A 
ATOM     14  C   UNL     1       6.225   5.788  -1.402  0.00  0.00    +0.000 A 
ENDBRANCH   8  12
ENDBRANCH   5   8
ENDBRANCH   1   5
BRANCH   1  15
ATOM     15  C   UNL     1       0.546   3.625   1.266  0.00  0.00    +0.000 C 
BRANCH  15  16
ATOM     16  C   UNL     1       0.496   5.130   1.214  0.00  0.00    +0.000 A 
ATOM     17  C   UNL     1      -0.449   5.884   0.597  0.00  0.00    +0.000 A 
ATOM     18  N   UNL     1      -0.144   7.166   0.776  0.00  0.00    +0.000 NA
ATOM     19  C   UNL     1       0.961   7.252   1.486  0.00  0.00    +0.000 A 
ATOM     20  N   UNL     1       1.381   5.984   1.779  0.00  0.00    +0.000 N 
ATOM     21  H   UNL     1       2.214   5.727   2.327  0.00  0.00    +0.000 HD
BRANCH  19  22
ATOM     22  C   UNL     1       1.628   8.498   1.898  0.00  0.00    +0.000 C 
ATOM     23  O   UNL     1       2.650   8.453   2.555  0.00  0.00    +0.000 OA
ATOM     24  O   UNL     1       1.105   9.690   1.547  0.00  0.00    +0.000 OA
ENDBRANCH  19  22
ENDBRANCH  15  16
ENDBRANCH   1  15
TORSDOF 7
ENDMDL
MODEL      519
REMARK  Name = ZINC06382444
REMARK  9 active torsions:
REMARK  status: ('A' for Active; 'I' for Inactive)
REMARK    1  A    between atoms: C_1  and  C_2
REMARK    2  A    between atoms: C_2  and  N_19
REMARK    3  A    between atoms: C_3  and  C_4
REMARK    4  A    between atoms: C_3  and  N_19
REMARK    5  A    between atoms: C_5  and  C_6
REMARK    6  A    between atoms: C_5  and  N_19
REMARK    7  A    between atoms: C_6  and  C_7
REMARK    8  A    between atoms: C_6  and  O_18
REMARK    9  A    between atoms: C_7  and  N_8
REMARK                            x       y       z     vdW  Elec       q    Type
REMARK                         _______ _______ _______ _____ _____    ______ ____
ROOT
ATOM      1  C   UNL     1      -3.312   1.584   2.333  0.00  0.00    +0.000 C 
ENDROOT
BRANCH   1   2
ATOM      2  N   UNL     1      -3.666   3.005   2.297  0.00  0.00    +0.000 N 
ATOM      3  C   UNL     1      -4.389   3.546   3.299  0.00  0.00    +0.000 C 
ATOM      4  N   UNL     1      -4.796   2.816   4.322  0.00  0.00    +0.000 NA
ATOM      5  C   UNL     1      -5.451   3.307   5.369  0.00  0.00    +0.000 C 
ATOM      6  N   UNL     1      -5.497   4.606   5.639  0.00  0.00    +0.000 NA
ATOM      7  C   UNL     1      -4.896   5.403   4.755  0.00  0.00    +0.000 C 
ATOM      8  N   UNL     1      -4.181   6.482   4.881  0.00  0.00    +0.000 NA
ATOM      9  C   UNL     1      -3.473   6.731   3.772  0.00  0.00    +0.000 C 
ATOM     10  N   UNL     1      -3.721   5.895   2.803  0.00  0.00    +0.000 NA
ATOM     11  C   UNL     1      -4.768   5.002   3.291  0.00  0.00    +0.000 C 
ATOM     12  H   UNL     1      -3.362   3.591   1.507  0.00  0.00    +0.000 HD
ENDBRANCH   1   2
BRANCH   1  13
ATOM     13  C   UNL     1      -2.497   1.229   1.088  0.00  0.00    +0.000 C 
BRANCH  13  14
ATOM     14  O   UNL     1      -3.272   1.497  -0.082  0.00  0.00    +0.000 OA
ATOM     15  H   UNL     1      -4.099   0.953  -0.063  0.00  0.00    +0.000 HD
ENDBRANCH  13  14
BRANCH  13  16
ATOM     16  C   UNL     1      -2.127  -0.255   1.126  0.00  0.00    +0.000 C 
BRANCH  16  17
ATOM     17  N   UNL     1      -1.327  -0.575  -0.075  0.00  0.00    +0.000 N 
ATOM     18  H   UNL     1      -1.748  -0.109  -0.891  0.00  0.00    +0.000 HD
BRANCH  17  19
ATOM     19  C   UNL     1      -1.323  -2.035  -0.305  0.00  0.00    +0.000 C 
ATOM     20  C   UNL     1      -0.683  -2.318  -1.666  0.00  0.00    +0.000 C 
ENDBRANCH  17  19
BRANCH  17  22
ATOM     21  C   UNL     1       0.743  -0.810   1.256  0.00  0.00    +0.000 C 
ATOM     22  C   UNL     1       0.057  -0.086   0.096  0.00  0.00    +0.000 C 
ENDBRANCH  17  22
ENDBRANCH  16  17
ENDBRANCH  13  16
ENDBRANCH   1  13
TORSDOF 7
ENDMDL
MODEL      520
REMARK  Name = ZINC06385381
REMARK  10 active torsions:
REMARK  status: ('A' for Active; 'I' for Inactive)
REMARK    1  A    between atoms: C_1  and  O_2
REMARK    2  A    between atoms: O_2  and  C_3
REMARK    3  A    between atoms: C_3  and  C_4
REMARK    4  A    between atoms: C_4  and  N_5
REMARK    5  A    between atoms: C_6  and  C_8
REMARK    6  A    between atoms: N_10  and  N_11
REMARK    7  A    between atoms: N_14  and  C_17
REMARK    8  A    between atoms: C_17  and  C_18
REMARK    9  A    between atoms: C_18  and  O_19
REMARK   10  A    between atoms: O_19  and  C_20
REMARK                            x       y       z     vdW  Elec       q    Type
REMARK                         _______ _______ _______ _____ _____    ______ ____
ROOT
ATOM      1  C   UNL     1       1.278   2.115   0.001  0.00  0.00    +0.000 C 
ATOM      2  C   UNL     1       1.011   3.607   0.064  0.00  0.00    +0.000 C 
ATOM      3  N   UNL     1       0.360   4.338  -0.797  0.00  0.00    +0.000 NA
ATOM      4  C   UNL     1       1.649   4.042   1.309  0.00  0.00    +0.000 C 
ATOM      5  O   UNL     1       1.659   5.185   1.725  0.00  0.00    +0.000 OA
ATOM      6  N   UNL     1       2.219   2.998   1.923  0.00  0.00    +0.000 N 
ATOM      7  C   UNL     1       2.071   1.837   1.260  0.00  0.00    +0.000 C 
ATOM      8  O   UNL     1       2.497   0.756   1.609  0.00  0.00    +0.000 OA
ENDROOT
BRANCH   1  10
ATOM      9  N   UNL     1       0.002  -0.004   0.002  0.00  0.00    +0.000 N 
ATOM     10  C   UNL     1      -0.016   1.344   0.009  0.00  0.00    +0.000 C 
ATOM     11  O   UNL     1      -1.075   1.936   0.018  0.00  0.00    +0.000 OA
ATOM     12  H   UNL     1       0.901  -0.507  -0.009  0.00  0.00    +0.000 HD
BRANCH   9  13
ATOM     13  C   UNL     1      -1.256  -0.754   0.010  0.00  0.00    +0.000 C 
BRANCH  13  14
ATOM     14  C   UNL     1      -0.957  -2.254  -0.001  0.00  0.00    +0.000 C 
BRANCH  14  16
ATOM     15  C   UNL     1       0.034  -4.004   1.304  0.00  0.00    +0.000 C 
ATOM     16  O   UNL     1      -0.293  -2.616   1.212  0.00  0.00    +0.000 OA
ENDBRANCH  14  16
ENDBRANCH  13  14
ENDBRANCH   9  13
ENDBRANCH   1  10
BRANCH   3  17
ATOM     17  N   UNL     1       0.209   5.714  -0.576  0.00  0.00    +0.000 N 
ATOM     18  H   UNL     1       0.612   6.147   0.267  0.00  0.00    +0.000 HD
ATOM     19  H   UNL     1      -0.306   6.291  -1.256  0.00  0.00    +0.000 HD
ENDBRANCH   3  17
BRANCH   6  20
ATOM     20  C   UNL     1       2.937   3.109   3.195  0.00  0.00    +0.000 C 
BRANCH  20  21
ATOM     21  C   UNL     1       1.960   2.898   4.353  0.00  0.00    +0.000 C 
BRANCH  21  22
ATOM     22  O   UNL     1       1.460   1.560   4.316  0.00  0.00    +0.000 OA
ATOM     23  C   UNL     1       0.534   1.257   5.361  0.00  0.00    +0.000 C 
ENDBRANCH  21  22
ENDBRANCH  20  21
ENDBRANCH   6  20
TORSDOF 8
ENDMDL
MODEL      521
REMARK  Name = ZINC20922460
REMARK  9 active torsions:
REMARK  status: ('A' for Active; 'I' for Inactive)
REMARK    1  A    between atoms: C_1  and  O_2
REMARK    2  A    between atoms: O_2  and  C_3
REMARK    3  A    between atoms: C_3  and  C_4
REMARK    4  A    between atoms: N_6  and  N_7
REMARK    5  A    between atoms: C_8  and  C_10
REMARK    6  A    between atoms: C_10  and  S_11
REMARK    7  A    between atoms: S_11  and  C_12
REMARK    8  A    between atoms: N_16  and  N_17
REMARK    9  A    between atoms: N_18  and  N_19
REMARK                            x       y       z     vdW  Elec       q    Type
REMARK                         _______ _______ _______ _____ _____    ______ ____
ROOT
ATOM      1  S   UNL     1      -3.171   1.545   0.336  0.00  0.00    +0.000 S 
ENDROOT
BRANCH   1   2
ATOM      2  C   UNL     1      -2.080   1.760  -1.031  0.00  0.00    +0.000 A 
ATOM      3  N   UNL     1      -2.411   2.209  -2.217  0.00  0.00    +0.000 NA
ATOM      4  N   UNL     1      -1.257   2.228  -3.010  0.00  0.00    +0.000 NA
ATOM      5  C   UNL     1      -0.257   1.797  -2.281  0.00  0.00    +0.000 A 
ATOM      6  N   UNL     1      -0.741   1.490  -1.041  0.00  0.00    +0.000 N 
ATOM      7  N   UNL     1       1.062   1.669  -2.698  0.00  0.00    +0.000 N 
ATOM      8  H   UNL     1       1.776   1.315  -2.046  0.00  0.00    +0.000 HD
BRANCH   7   9
ATOM      9  N   UNL     1       1.412   2.013  -3.973  0.00  0.00    +0.000 NA
ATOM     10  H   UNL     1       1.111   2.993  -4.075  0.00  0.00    +0.000 HD
ATOM     11  H   UNL     1       0.802   1.444  -4.578  0.00  0.00    +0.000 HD
ENDBRANCH   7   9
BRANCH   6  12
ATOM     12  N   UNL     1      -0.012   1.005   0.008  0.00  0.00    +0.000 N 
ATOM     13  H   UNL     1      -0.538   0.833   0.876  0.00  0.00    +0.000 HD
ATOM     14  H   UNL     1       1.000   0.817  -0.051  0.00  0.00    +0.000 HD
ENDBRANCH   6  12
ENDBRANCH   1   2
BRANCH   1  15
ATOM     15  C   UNL     1      -4.783   2.078  -0.300  0.00  0.00    +0.000 C 
BRANCH  15  17
ATOM     16  N   UNL     1      -7.102   2.282   0.538  0.00  0.00    +0.000 N 
ATOM     17  C   UNL     1      -5.821   1.942   0.784  0.00  0.00    +0.000 C 
ATOM     18  O   UNL     1      -5.504   1.526   1.879  0.00  0.00    +0.000 OA
ATOM     19  H   UNL     1      -7.371   2.635  -0.392  0.00  0.00    +0.000 HD
BRANCH  16  22
ATOM     20  C   UNL     1      -9.347   2.496   1.300  0.00  0.00    +0.000 C 
ATOM     21  O   UNL     1      -9.664   2.911   0.205  0.00  0.00    +0.000 OA
ATOM     22  N   UNL     1      -8.066   2.156   1.546  0.00  0.00    +0.000 N 
ATOM     23  H   UNL     1      -7.797   1.803   2.475  0.00  0.00    +0.000 HD
BRANCH  20  24
ATOM     24  C   UNL     1     -10.385   2.360   2.384  0.00  0.00    +0.000 C 
BRANCH  24  26
ATOM     25  C   UNL     1     -12.715   2.690   2.837  0.00  0.00    +0.000 C 
ATOM     26  O   UNL     1     -11.655   2.780   1.883  0.00  0.00    +0.000 OA
ENDBRANCH  24  26
ENDBRANCH  20  24
ENDBRANCH  16  22
ENDBRANCH  15  17
ENDBRANCH   1  15
TORSDOF 8
ENDMDL
MODEL      522
REMARK  Name = ZINC29563793
REMARK  9 active torsions:
REMARK  status: ('A' for Active; 'I' for Inactive)
REMARK    1  A    between atoms: C_1  and  S_2
REMARK    2  A    between atoms: S_2  and  C_3
REMARK    3  A    between atoms: C_7  and  O_9
REMARK    4  A    between atoms: O_9  and  C_10
REMARK    5  A    between atoms: C_10  and  C_11
REMARK    6  A    between atoms: C_11  and  O_12
REMARK    7  A    between atoms: O_12  and  C_13
REMARK    8  A    between atoms: C_13  and  P_14
REMARK    9  A    between atoms: P_14  and  O_17
REMARK                            x       y       z     vdW  Elec       q    Type
REMARK                         _______ _______ _______ _____ _____    ______ ____
ROOT
ATOM      1  C   UNL     1       1.472   0.071   3.586  0.00  0.00    +0.000 A 
ATOM      2  N   UNL     1       0.934   0.442   4.739  0.00  0.00    +0.000 NA
ATOM      3  C   UNL     1      -0.162   1.195   4.767  0.00  0.00    +0.000 A 
ATOM      4  C   UNL     1      -0.740   1.597   3.564  0.00  0.00    +0.000 A 
ATOM      5  C   UNL     1      -0.150   1.183   2.377  0.00  0.00    +0.000 A 
ATOM      6  N   UNL     1       0.945   0.431   2.424  0.00  0.00    +0.000 NA
ATOM      7  N   UNL     1      -0.719   1.579   5.976  0.00  0.00    +0.000 N 
ATOM      8  H   UNL     1      -0.280   1.279   6.859  0.00  0.00    +0.000 HD
ATOM      9  H   UNL     1      -1.568   2.163   5.994  0.00  0.00    +0.000 HD
ENDROOT
BRANCH   1  11
ATOM     10  C   UNL     1       3.175  -1.096   5.382  0.00  0.00    +0.000 C 
ATOM     11  S   UNL     1       2.924  -0.927   3.597  0.00  0.00    +0.000 S 
ENDBRANCH   1  11
BRANCH   5  12
ATOM     12  O   UNL     1      -0.682   1.547   1.184  0.00  0.00    +0.000 OA
BRANCH  12  13
ATOM     13  C   UNL     1      -0.013   1.086   0.008  0.00  0.00    +0.000 C 
BRANCH  13  14
ATOM     14  C   UNL     1      -0.753   1.593  -1.232  0.00  0.00    +0.000 C 
BRANCH  14  15
ATOM     15  O   UNL     1      -0.672   3.018  -1.285  0.00  0.00    +0.000 OA
BRANCH  15  16
ATOM     16  C   UNL     1      -1.335   3.596  -2.411  0.00  0.00    +0.000 C 
BRANCH  16  17
ATOM     17  P   UNL     1      -3.138   3.549  -2.145  0.00  0.00    +0.000 P 
ATOM     18  O   UNL     1      -3.477   4.316  -0.926  0.00  0.00    +0.000 OA
ATOM     19  O   UNL     1      -3.884   4.200  -3.414  0.00  0.00    +0.000 OA
BRANCH  17  20
ATOM     20  O   UNL     1      -3.614   2.022  -1.968  0.00  0.00    +0.000 OA
ATOM     21  H   UNL     1      -3.155   1.620  -1.188  0.00  0.00    +0.000 HD
ENDBRANCH  17  20
ENDBRANCH  16  17
ENDBRANCH  15  16
ENDBRANCH  14  15
ENDBRANCH  13  14
ENDBRANCH  12  13
ENDBRANCH   5  12
TORSDOF 8
ENDMDL
MODEL      523
REMARK  Name = ZINC01731877
REMARK  7 active torsions:
REMARK  status: ('A' for Active; 'I' for Inactive)
REMARK    1  A    between atoms: C_3  and  O_17
REMARK    2  A    between atoms: C_6  and  C_7
REMARK    3  A    between atoms: C_7  and  C_8
REMARK    4  A    between atoms: C_8  and  N_9
REMARK    5  A    between atoms: C_10  and  C_11
REMARK    6  A    between atoms: C_11  and  S_12
REMARK    7  A    between atoms: S_12  and  S_13
REMARK                            x       y       z     vdW  Elec       q    Type
REMARK                         _______ _______ _______ _____ _____    ______ ____
ROOT
ATOM      1  N   UNL     1       1.225  -3.452  -1.571  0.00  0.00    +0.000 N 
ATOM      2  C   UNL     1       1.228  -4.462  -2.495  0.00  0.00    +0.000 C 
ATOM      3  N   UNL     1       1.212  -4.113  -3.763  0.00  0.00    +0.000 N 
ATOM      4  H   UNL     1       1.238  -3.674  -0.565  0.00  0.00    +0.000 HD
ATOM      5  H   UNL     1       1.197  -3.127  -4.060  0.00  0.00    +0.000 HD
ATOM      6  H   UNL     1       1.214  -4.855  -4.477  0.00  0.00    +0.000 HD
ENDROOT
BRANCH   1   7
ATOM      7  C   UNL     1       1.205  -2.055  -2.012  0.00  0.00    +0.000 C 
BRANCH   7   8
ATOM      8  C   UNL     1       1.206  -1.134  -0.790  0.00  0.00    +0.000 C 
BRANCH   8  14
ATOM      9  C   UNL     1      -0.023   0.947  -1.440  0.00  0.00    +0.000 A 
ATOM     10  C   UNL     1      -0.045   2.264  -1.856  0.00  0.00    +0.000 A 
ATOM     11  C   UNL     1       1.146   2.941  -2.076  0.00  0.00    +0.000 A 
ATOM     12  C   UNL     1       2.356   2.292  -1.878  0.00  0.00    +0.000 A 
ATOM     13  C   UNL     1       2.373   0.975  -1.463  0.00  0.00    +0.000 A 
ATOM     14  C   UNL     1       1.185   0.303  -1.244  0.00  0.00    +0.000 A 
BRANCH  11  15
ATOM     15  O   UNL     1       1.127   4.237  -2.486  0.00  0.00    +0.000 OA
ATOM     16  H   UNL     1       0.597   4.713  -1.798  0.00  0.00    +0.000 HD
ENDBRANCH  11  15
ENDBRANCH   8  14
ENDBRANCH   7   8
ENDBRANCH   1   7
BRANCH   2  17
ATOM     17  C   UNL     1       1.249  -5.899  -2.042  0.00  0.00    +0.000 C 
BRANCH  17  18
ATOM     18  S   UNL     1       1.248  -6.991  -3.490  0.00  0.00    +0.000 S 
BRANCH  18  19
ATOM     19  S   UNL     1       3.106  -6.725  -4.314  0.00  0.00    +0.000 S 
ATOM     20  O   UNL     1       3.095  -7.394  -5.567  0.00  0.00    +0.000 OA
ATOM     21  O   UNL     1       3.411  -5.342  -4.191  0.00  0.00    +0.000 OA
ATOM     22  O   UNL     1       4.100  -7.469  -3.433  0.00  0.00    +0.000 OA
ENDBRANCH  18  19
ENDBRANCH  17  18
ENDBRANCH   2  17
TORSDOF 7
ENDMDL
MODEL      524
REMARK  Name = ZINC19691862
REMARK  7 active torsions:
REMARK  status: ('A' for Active; 'I' for Inactive)
REMARK    1  A    between atoms: C_5  and  N_18
REMARK    2  A    between atoms: C_6  and  N_7
REMARK    3  A    between atoms: N_7  and  N_8
REMARK    4  A    between atoms: C_9  and  C_10
REMARK    5  A    between atoms: C_9  and  C_15
REMARK    6  A    between atoms: C_10  and  C_11
REMARK    7  A    between atoms: C_11  and  C_12
REMARK                            x       y       z     vdW  Elec       q    Type
REMARK                         _______ _______ _______ _____ _____    ______ ____
ROOT
ATOM      1  N   UNL     1      -1.315  -0.535   1.747  0.00  0.00    +0.000 N 
ATOM      2  H   UNL     1      -0.709  -0.884   0.991  0.00  0.00    +0.000 HD
ENDROOT
BRANCH   1   8
ATOM      3  C   UNL     1      -3.492  -1.648   1.861  0.00  0.00    +0.000 C 
ATOM      4  C   UNL     1      -4.310  -2.674   2.648  0.00  0.00    +0.000 C 
ATOM      5  N   UNL     1      -3.592  -3.955   2.679  0.00  0.00    +0.000 N 
ATOM      6  C   UNL     1      -2.297  -3.822   3.358  0.00  0.00    +0.000 C 
ATOM      7  C   UNL     1      -1.419  -2.830   2.592  0.00  0.00    +0.000 C 
ATOM      8  C   UNL     1      -2.125  -1.473   2.529  0.00  0.00    +0.000 C 
ATOM      9  H   UNL     1      -4.165  -4.653   3.176  0.00  0.00    +0.000 HD
ATOM     10  H   UNL     1      -3.437  -4.281   1.715  0.00  0.00    +0.000 HD
BRANCH   7  11
ATOM     11  N   UNL     1      -0.134  -2.681   3.280  0.00  0.00    +0.000 N 
ATOM     12  O   UNL     1      -0.102  -2.280   4.430  0.00  0.00    +0.000 OA
ATOM     13  O   UNL     1       0.902  -2.959   2.704  0.00  0.00    +0.000 OA
ENDBRANCH   7  11
ENDBRANCH   1   8
BRANCH   1  14
ATOM     14  N   UNL     1      -1.362   0.728   2.005  0.00  0.00    +0.000 NA
ATOM     15  C   UNL     1      -0.720   1.572   1.246  0.00  0.00    +0.000 C 
BRANCH  15  16
ATOM     16  C   UNL     1      -0.666   2.986   1.611  0.00  0.00    +0.000 C 
ATOM     17  O   UNL     1      -0.067   3.774   0.903  0.00  0.00    +0.000 OA
ATOM     18  O   UNL     1      -1.280   3.418   2.732  0.00  0.00    +0.000 OA
ENDBRANCH  15  16
BRANCH  15  19
ATOM     19  C   UNL     1      -0.034   1.089  -0.006  0.00  0.00    +0.000 C 
BRANCH  19  20
ATOM     20  C   UNL     1       1.395   0.658   0.330  0.00  0.00    +0.000 C 
BRANCH  20  21
ATOM     21  C   UNL     1       2.081   0.175  -0.922  0.00  0.00    +0.000 C 
ATOM     22  O   UNL     1       1.488   0.177  -1.975  0.00  0.00    +0.000 OA
ATOM     23  O   UNL     1       3.351  -0.256  -0.868  0.00  0.00    +0.000 OA
ENDBRANCH  20  21
ENDBRANCH  19  20
ENDBRANCH  15  19
ENDBRANCH   1  14
TORSDOF 7
ENDMDL
MODEL      525
REMARK  Name = ZINC20292465
REMARK  10 active torsions:
REMARK  status: ('A' for Active; 'I' for Inactive)
REMARK    1  A    between atoms: C_1  and  C_2
REMARK    2  A    between atoms: C_2  and  C_3
REMARK    3  A    between atoms: C_3  and  N_4
REMARK    4  A    between atoms: N_4  and  C_5
REMARK    5  A    between atoms: C_5  and  C_6
REMARK    6  A    between atoms: C_6  and  N_7
REMARK    7  A    between atoms: N_7  and  C_8
REMARK    8  A    between atoms: N_7  and  C_9
REMARK    9  A    between atoms: N_15  and  C_18
REMARK   10  A    between atoms: C_18  and  C_19
REMARK                            x       y       z     vdW  Elec       q    Type
REMARK                         _______ _______ _______ _____ _____    ______ ____
ROOT
ATOM      1  C   UNL     1      -4.772   5.521  -1.848  0.00  0.00    +0.000 C 
ATOM      2  C   UNL     1      -3.989   4.258  -2.105  0.00  0.00    +0.000 C 
ATOM      3  C   UNL     1      -3.168   4.460  -3.363  0.00  0.00    +0.000 C 
ATOM      4  N   UNL     1      -1.869   4.329  -3.274  0.00  0.00    +0.000 N 
ATOM      5  C   UNL     1      -1.251   4.033  -2.126  0.00  0.00    +0.000 C 
ATOM      6  O   UNL     1      -0.038   3.938  -2.147  0.00  0.00    +0.000 OA
ATOM      7  N   UNL     1      -1.870   3.827  -0.956  0.00  0.00    +0.000 N 
ATOM      8  C   UNL     1      -3.214   3.919  -0.845  0.00  0.00    +0.000 C 
ATOM      9  O   UNL     1      -3.775   3.738   0.214  0.00  0.00    +0.000 OA
ATOM     10  O   UNL     1      -3.755   4.764  -4.532  0.00  0.00    +0.000 OA
ATOM     11  H   UNL     1      -1.300   4.460  -4.122  0.00  0.00    +0.000 HD
ENDROOT
BRANCH   1  12
ATOM     12  N   UNL     1      -4.623   6.152  -0.745  0.00  0.00    +0.000 N 
ATOM     13  H   UNL     1      -3.906   5.849  -0.071  0.00  0.00    +0.000 HD
BRANCH  12  14
ATOM     14  C   UNL     1      -5.474   7.305  -0.441  0.00  0.00    +0.000 C 
BRANCH  14  15
ATOM     15  C   UNL     1      -6.333   6.996   0.787  0.00  0.00    +0.000 C 
BRANCH  15  16
ATOM     16  N   UNL     1      -7.185   8.152   1.092  0.00  0.00    +0.000 N 
ATOM     17  C   UNL     1      -8.169   8.377   0.025  0.00  0.00    +0.000 C 
ATOM     18  C   UNL     1      -7.848   7.990   2.393  0.00  0.00    +0.000 C 
ATOM     19  H   UNL     1      -6.582   8.985   1.146  0.00  0.00    +0.000 HD
ENDBRANCH  15  16
ENDBRANCH  14  15
ENDBRANCH  12  14
ENDBRANCH   1  12
BRANCH   1  21
ATOM     20  C   UNL     1      -7.138   5.528  -2.587  0.00  0.00    +0.000 C 
ATOM     21  C   UNL     1      -5.729   6.039  -2.890  0.00  0.00    +0.000 C 
ENDBRANCH   1  21
BRANCH   7  22
ATOM     22  C   UNL     1      -1.073   3.502   0.229  0.00  0.00    +0.000 C 
BRANCH  22  23
ATOM     23  C   UNL     1      -0.918   2.006   0.335  0.00  0.00    +0.000 C 
ATOM     24  C   UNL     1       0.276   1.475   0.414  0.00  0.00    +0.000 C 
ENDBRANCH  22  23
ENDBRANCH   7  22
TORSDOF 7
ENDMDL
MODEL      526
REMARK  Name = ZINC16899833
REMARK  9 active torsions:
REMARK  status: ('A' for Active; 'I' for Inactive)
REMARK    1  A    between atoms: C_1  and  C_2
REMARK    2  A    between atoms: C_2  and  O_3
REMARK    3  A    between atoms: O_3  and  C_4
REMARK    4  A    between atoms: C_7  and  N_10
REMARK    5  A    between atoms: C_14  and  S_17
REMARK    6  A    between atoms: S_17  and  C_18
REMARK    7  A    between atoms: C_18  and  C_19
REMARK    8  A    between atoms: C_19  and  C_20
REMARK    9  A    between atoms: C_19  and  N_23
REMARK                            x       y       z     vdW  Elec       q    Type
REMARK                         _______ _______ _______ _____ _____    ______ ____
ROOT
ATOM      1  N   UNK     1      -2.848  -1.279  -1.869  0.00  0.00    +0.000 N 
ATOM      2  C   UNK     1      -2.666  -2.373  -1.120  0.00  0.00    +0.000 C 
ATOM      3  O   UNK     1      -3.028  -3.493  -1.412  0.00  0.00    +0.000 OA
ATOM      4  C   UNK     1      -1.935  -1.992   0.149  0.00  0.00    +0.000 C 
ATOM      5  C   UNK     1      -1.725  -0.471   0.002  0.00  0.00    +0.000 C 
ATOM      6  C   UNK     1      -2.359  -0.153  -1.334  0.00  0.00    +0.000 C 
ATOM      7  O   UNK     1      -2.415   0.947  -1.841  0.00  0.00    +0.000 OA
ENDROOT
BRANCH   1  11
ATOM      8  C   UNK     1      -4.784  -1.367  -5.564  0.00  0.00    +0.000 A 
ATOM      9  C   UNK     1      -5.369  -0.712  -4.490  0.00  0.00    +0.000 A 
ATOM     10  C   UNK     1      -4.729  -0.682  -3.267  0.00  0.00    +0.000 A 
ATOM     11  C   UNK     1      -3.500  -1.309  -3.112  0.00  0.00    +0.000 A 
ATOM     12  C   UNK     1      -2.912  -1.960  -4.188  0.00  0.00    +0.000 A 
ATOM     13  C   UNK     1      -3.555  -1.993  -5.409  0.00  0.00    +0.000 A 
BRANCH   8  14
ATOM     14  O   UNK     1      -5.414  -1.396  -6.768  0.00  0.00    +0.000 OA
BRANCH  14  16
ATOM     15  C   UNK     1      -5.609  -2.014  -9.096  0.00  0.00    +0.000 C 
ATOM     16  C   UNK     1      -4.755  -2.088  -7.829  0.00  0.00    +0.000 C 
ENDBRANCH  14  16
ENDBRANCH   8  14
ENDBRANCH   1  11
BRANCH   5  17
ATOM     17  S   UNK     1       0.044  -0.070  -0.018  0.00  0.00    +0.000 S 
BRANCH  17  18
ATOM     18  C   UNK     1       0.083   1.743  -0.042  0.00  0.00    +0.000 C 
BRANCH  18  19
ATOM     19  C   UNK     1       1.536   2.222  -0.060  0.00  0.00    +0.000 C 
BRANCH  19  20
ATOM     20  N   UNK     1       2.173   1.803  -1.316  0.00  0.00    +0.000 N 
ATOM     21  H   UNK     1       1.666   2.214  -2.113  0.00  0.00    +0.000 HD
ATOM     22  H   UNK     1       2.150   0.776  -1.388  0.00  0.00    +0.000 HD
ATOM     23  H   UNK     1       3.151   2.125  -1.330  0.00  0.00    +0.000 HD
ENDBRANCH  19  20
BRANCH  19  24
ATOM     24  C   UNK     1       1.571   3.725   0.044  0.00  0.00    +0.000 C 
ATOM     25  O   UNK     1       1.729   4.396  -0.948  0.00  0.00    +0.000 OA
ATOM     26  O   UNK     1       1.426   4.318   1.239  0.00  0.00    +0.000 OA
ENDBRANCH  19  24
ENDBRANCH  18  19
ENDBRANCH  17  18
ENDBRANCH   5  17
TORSDOF 8
ENDMDL
MODEL      527
REMARK  Name = ZINC06178420
REMARK  13 active torsions:
REMARK  status: ('A' for Active; 'I' for Inactive)
REMARK    1  A    between atoms: C_1  and  N_2
REMARK    2  A    between atoms: N_2  and  C_3
REMARK    3  A    between atoms: N_2  and  N_9
REMARK    4  A    between atoms: C_10  and  C_11
REMARK    5  A    between atoms: C_11  and  C_14
REMARK    6  A    between atoms: N_12  and  N_13
REMARK    7  A    between atoms: C_14  and  C_15
REMARK    8  A    between atoms: C_14  and  O_21
REMARK    9  A    between atoms: C_15  and  C_16
REMARK   10  A    between atoms: C_15  and  O_20
REMARK   11  A    between atoms: C_16  and  C_17
REMARK   12  A    between atoms: C_16  and  O_19
REMARK   13  A    between atoms: C_17  and  O_18
REMARK                            x       y       z     vdW  Elec       q    Type
REMARK                         _______ _______ _______ _____ _____    ______ ____
ROOT
ATOM      1  C   UNL     1       2.773  -2.723   0.079  0.00  0.00    +0.000 C 
ATOM      2  N   UNL     1       3.998  -2.308   0.227  0.00  0.00    +0.000 NA
ENDROOT
BRANCH   2   3
ATOM      3  N   UNL     1       5.039  -3.235   0.370  0.00  0.00    +0.000 N 
ATOM      4  H   UNL     1       4.835  -4.244   0.357  0.00  0.00    +0.000 HD
ATOM      5  H   UNL     1       6.008  -2.906   0.487  0.00  0.00    +0.000 HD
ENDBRANCH   2   3
BRANCH   1   7
ATOM      6  N   UNL     1       1.917  -0.489   0.198  0.00  0.00    +0.000 NA
ATOM      7  C   UNL     1       1.672  -1.761   0.063  0.00  0.00    +0.000 C 
BRANCH   6   9
ATOM      8  C   UNL     1      -0.517  -0.035   0.015  0.00  0.00    +0.000 C 
ATOM      9  N   UNL     1       0.862   0.432   0.182  0.00  0.00    +0.000 N 
BRANCH   9  10
ATOM     10  C   UNL     1       1.123   1.794   0.327  0.00  0.00    +0.000 A 
ATOM     11  C   UNL     1       0.079   2.711   0.306  0.00  0.00    +0.000 A 
ATOM     12  C   UNL     1       0.341   4.058   0.455  0.00  0.00    +0.000 A 
ATOM     13  C   UNL     1       1.643   4.497   0.613  0.00  0.00    +0.000 A 
ATOM     14  C   UNL     1       2.686   3.589   0.628  0.00  0.00    +0.000 A 
ATOM     15  C   UNL     1       2.431   2.240   0.485  0.00  0.00    +0.000 A 
ENDBRANCH   9  10
ENDBRANCH   6   9
ENDBRANCH   1   7
BRANCH   1  16
ATOM     16  C   UNL     1       2.490  -4.195  -0.077  0.00  0.00    +0.000 C 
BRANCH  16  17
ATOM     17  O   UNL     1       1.400  -4.377  -0.982  0.00  0.00    +0.000 OA
ATOM     18  H   UNL     1       1.633  -3.992  -1.864  0.00  0.00    +0.000 HD
ENDBRANCH  16  17
BRANCH  16  19
ATOM     19  C   UNL     1       2.127  -4.792   1.285  0.00  0.00    +0.000 C 
BRANCH  19  20
ATOM     20  O   UNL     1       3.161  -4.494   2.225  0.00  0.00    +0.000 OA
ATOM     21  H   UNL     1       3.258  -3.513   2.311  0.00  0.00    +0.000 HD
ENDBRANCH  19  20
BRANCH  19  22
ATOM     22  C   UNL     1       1.978  -6.309   1.153  0.00  0.00    +0.000 C 
BRANCH  22  23
ATOM     23  O   UNL     1       0.944  -6.606   0.213  0.00  0.00    +0.000 OA
ATOM     24  H   UNL     1       1.178  -6.221  -0.669  0.00  0.00    +0.000 HD
ENDBRANCH  22  23
BRANCH  22  25
ATOM     25  C   UNL     1       1.615  -6.905   2.515  0.00  0.00    +0.000 C 
BRANCH  25  26
ATOM     26  O   UNL     1       1.590  -8.331   2.419  0.00  0.00    +0.000 OA
ATOM     27  H   UNL     1       2.482  -8.660   2.142  0.00  0.00    +0.000 HD
ENDBRANCH  25  26
ENDBRANCH  22  25
ENDBRANCH  19  22
ENDBRANCH  16  19
ENDBRANCH   1  16
TORSDOF 12
ENDMDL
MODEL      528
REMARK  Name = ZINC04504181
REMARK  11 active torsions:
REMARK  status: ('A' for Active; 'I' for Inactive)
REMARK    1  A    between atoms: C_1  and  N_2
REMARK    2  A    between atoms: C_4  and  C_7
REMARK    3  A    between atoms: C_7  and  C_8
REMARK    4  A    between atoms: C_7  and  O_20
REMARK    5  A    between atoms: C_8  and  N_21
REMARK    6  A    between atoms: C_9  and  C_10
REMARK    7  A    between atoms: C_9  and  N_21
REMARK    8  A    between atoms: C_13  and  O_18
REMARK    9  A    between atoms: C_14  and  O_16
REMARK   10  A    between atoms: O_16  and  C_17
REMARK   11  A    between atoms: O_18  and  C_19
REMARK                            x       y       z     vdW  Elec       q    Type
REMARK                         _______ _______ _______ _____ _____    ______ ____
ROOT
ATOM      1  N   UNL     1      -2.689   3.543   1.453  0.00  0.00    +0.000 N 
ATOM      2  H   UNL     1      -2.652   4.298   0.753  0.00  0.00    +0.000 HD
ATOM      3  H   UNL     1      -3.475   2.915   1.229  0.00  0.00    +0.000 HD
ENDROOT
BRANCH   1   4
ATOM      4  C   UNL     1      -2.897   4.128   2.791  0.00  0.00    +0.000 C 
BRANCH   4   5
ATOM      5  C   UNL     1      -4.192   4.899   2.797  0.00  0.00    +0.000 A 
ATOM      6  C   UNL     1      -4.196   6.241   2.465  0.00  0.00    +0.000 A 
ATOM      7  C   UNL     1      -5.382   6.952   2.463  0.00  0.00    +0.000 A 
ATOM      8  C   UNL     1      -6.568   6.322   2.806  0.00  0.00    +0.000 A 
ATOM      9  C   UNL     1      -6.562   4.973   3.146  0.00  0.00    +0.000 A 
ATOM     10  C   UNL     1      -5.371   4.265   3.140  0.00  0.00    +0.000 A 
BRANCH   9  11
ATOM     11  O   UNL     1      -7.724   4.350   3.482  0.00  0.00    +0.000 OA
ATOM     12  C   UNL     1      -7.643   2.964   3.819  0.00  0.00    +0.000 C 
ENDBRANCH   9  11
BRANCH   8  13
ATOM     13  O   UNL     1      -7.734   7.021   2.810  0.00  0.00    +0.000 OA
ATOM     14  C   UNL     1      -7.664   8.403   2.450  0.00  0.00    +0.000 C 
ENDBRANCH   8  13
ENDBRANCH   4   5
ENDBRANCH   1   4
BRANCH   1  15
ATOM     15  C   UNL     1      -1.427   2.780   1.418  0.00  0.00    +0.000 C 
BRANCH  15  16
ATOM     16  C   UNL     1      -1.238   2.187   0.020  0.00  0.00    +0.000 C 
BRANCH  16  20
ATOM     17  C   UNL     1       1.694  -1.775  -0.024  0.00  0.00    +0.000 C 
ATOM     18  N   UNL     1       1.234  -0.384  -0.012  0.00  0.00    +0.000 N 
ATOM     19  N   UNL     1       0.002  -0.004   0.002  0.00  0.00    +0.000 NA
ATOM     20  C   UNL     1      -0.016   1.306   0.009  0.00  0.00    +0.000 A 
ATOM     21  N   UNL     1       1.254   1.711  -0.001  0.00  0.00    +0.000 NA
ATOM     22  N   UNL     1       1.995   0.655  -0.013  0.00  0.00    +0.000 NA
ENDBRANCH  16  20
BRANCH  16  23
ATOM     23  O   UNL     1      -1.073   3.244  -0.928  0.00  0.00    +0.000 OA
ATOM     24  H   UNL     1      -0.951   2.861  -1.832  0.00  0.00    +0.000 HD
ENDBRANCH  16  23
ENDBRANCH  15  16
ENDBRANCH   1  15
TORSDOF 8
ENDMDL
MODEL      529
REMARK  Name = ZINC31261662
REMARK  7 active torsions:
REMARK  status: ('A' for Active; 'I' for Inactive)
REMARK    1  A    between atoms: C_1  and  C_2
REMARK    2  A    between atoms: C_1  and  N_12
REMARK    3  A    between atoms: C_2  and  S_3
REMARK    4  A    between atoms: S_3  and  C_4
REMARK    5  A    between atoms: C_4  and  C_5
REMARK    6  A    between atoms: C_4  and  C_9
REMARK    7  A    between atoms: C_5  and  C_6
REMARK                            x       y       z     vdW  Elec       q    Type
REMARK                         _______ _______ _______ _____ _____    ______ ____
ROOT
ATOM      1  C   UNL     1      -3.970  -1.976  -2.420  0.00  0.00    +0.000 C 
ENDROOT
BRANCH   1   2
ATOM      2  N   UNL     1      -4.960  -3.054  -2.333  0.00  0.00    +0.000 N 
ATOM      3  C   UNL     1      -6.025  -3.022  -3.083  0.00  0.00    +0.000 C 
ATOM      4  N   UNL     1      -6.160  -2.050  -4.045  0.00  0.00    +0.000 N 
ATOM      5  N   UNL     1      -7.015  -3.961  -2.911  0.00  0.00    +0.000 N 
ATOM      6  H   UNL     1      -4.813  -3.836  -1.679  0.00  0.00    +0.000 HD
ATOM      7  H   UNL     1      -5.419  -1.346  -4.174  0.00  0.00    +0.000 HD
ATOM      8  H   UNL     1      -7.002  -2.025  -4.638  0.00  0.00    +0.000 HD
ATOM      9  H   UNL     1      -6.914  -4.689  -2.190  0.00  0.00    +0.000 HD
ATOM     10  H   UNL     1      -7.857  -3.936  -3.503  0.00  0.00    +0.000 HD
ENDBRANCH   1   2
BRANCH   1  11
ATOM     11  C   UNL     1      -3.892  -1.246  -1.077  0.00  0.00    +0.000 C 
BRANCH  11  12
ATOM     12  S   UNL     1      -2.667   0.087  -1.185  0.00  0.00    +0.000 S 
BRANCH  12  13
ATOM     13  C   UNL     1      -2.696   0.843   0.464  0.00  0.00    +0.000 C 
BRANCH  13  14
ATOM     14  C   UNL     1      -4.043   1.473   0.705  0.00  0.00    +0.000 C 
ATOM     15  O   UNL     1      -4.803   0.986   1.508  0.00  0.00    +0.000 OA
ATOM     16  O   UNL     1      -4.400   2.575   0.027  0.00  0.00    +0.000 OA
ENDBRANCH  13  14
BRANCH  13  17
ATOM     17  C   UNL     1      -1.608   1.916   0.551  0.00  0.00    +0.000 C 
BRANCH  17  18
ATOM     18  C   UNL     1      -0.253   1.268   0.433  0.00  0.00    +0.000 C 
ATOM     19  O   UNL     1      -0.165   0.071   0.292  0.00  0.00    +0.000 OA
ATOM     20  O   UNL     1       0.858   2.021   0.478  0.00  0.00    +0.000 OA
ENDBRANCH  17  18
ENDBRANCH  13  17
ENDBRANCH  12  13
ENDBRANCH  11  12
ENDBRANCH   1  11
TORSDOF 7
ENDMDL
MODEL      530
REMARK  Name = ZINC20183332
REMARK  12 active torsions:
REMARK  status: ('A' for Active; 'I' for Inactive)
REMARK    1  A    between atoms: C_1  and  C_2
REMARK    2  A    between atoms: C_2  and  C_3
REMARK    3  A    between atoms: C_2  and  N_4
REMARK    4  A    between atoms: N_4  and  C_5
REMARK    5  A    between atoms: N_4  and  S_8
REMARK    6  A    between atoms: C_5  and  C_6
REMARK    7  A    between atoms: C_6  and  N_7
REMARK    8  A    between atoms: S_8  and  C_11
REMARK    9  A    between atoms: C_13  and  O_19
REMARK   10  A    between atoms: C_16  and  O_17
REMARK   11  A    between atoms: O_17  and  C_18
REMARK   12  A    between atoms: O_19  and  C_20
REMARK                            x       y       z     vdW  Elec       q    Type
REMARK                         _______ _______ _______ _____ _____    ______ ____
ROOT
ATOM      1  S   UNL     1       1.071  -1.415   1.211  0.00  0.00    +0.000 S 
ATOM      2  O   UNL     1       0.788  -2.764   0.867  0.00  0.00    +0.000 OA
ATOM      3  O   UNL     1       2.372  -0.855   1.091  0.00  0.00    +0.000 OA
ENDROOT
BRANCH   1   4
ATOM      4  C   UNL     1       0.587  -1.211   2.893  0.00  0.00    +0.000 A 
ATOM      5  C   UNL     1       0.086  -2.285   3.602  0.00  0.00    +0.000 A 
ATOM      6  C   UNL     1      -0.289  -2.126   4.928  0.00  0.00    +0.000 A 
ATOM      7  C   UNL     1      -0.172  -0.885   5.538  0.00  0.00    +0.000 A 
ATOM      8  C   UNL     1       0.324   0.190   4.827  0.00  0.00    +0.000 A 
ATOM      9  C   UNL     1       0.704   0.029   3.502  0.00  0.00    +0.000 A 
BRANCH   9  10
ATOM     10  O   UNL     1       1.193   1.088   2.802  0.00  0.00    +0.000 OA
ATOM     11  C   UNL     1       1.286   2.335   3.493  0.00  0.00    +0.000 C 
ENDBRANCH   9  10
BRANCH   6  12
ATOM     12  O   UNL     1      -0.777  -3.184   5.628  0.00  0.00    +0.000 OA
ATOM     13  C   UNL     1      -1.150  -2.947   6.987  0.00  0.00    +0.000 C 
ENDBRANCH   6  12
ENDBRANCH   1   4
BRANCH   1  14
ATOM     14  N   UNL     1       0.064  -0.472   0.294  0.00  0.00    +0.000 NA
BRANCH  14  16
ATOM     15  C   UNL     1      -2.338  -0.017   0.363  0.00  0.00    +0.000 C 
ATOM     16  C   UNL     1      -1.248  -0.981  -0.111  0.00  0.00    +0.000 C 
ATOM     17  C   UNL     1      -1.301  -1.099  -1.636  0.00  0.00    +0.000 C 
ENDBRANCH  14  16
BRANCH  14  18
ATOM     18  C   UNL     1       0.486   0.871  -0.112  0.00  0.00    +0.000 C 
BRANCH  18  19
ATOM     19  C   UNL     1       1.141   0.805  -1.493  0.00  0.00    +0.000 C 
BRANCH  19  20
ATOM     20  N   UNL     1       1.683   2.125  -1.842  0.00  0.00    +0.000 N 
ATOM     21  H   UNL     1       2.386   2.404  -1.143  0.00  0.00    +0.000 HD
ATOM     22  H   UNL     1       0.921   2.817  -1.857  0.00  0.00    +0.000 HD
ATOM     23  H   UNL     1       2.124   2.080  -2.772  0.00  0.00    +0.000 HD
ENDBRANCH  19  20
ENDBRANCH  18  19
ENDBRANCH  14  18
ENDBRANCH   1  14
TORSDOF 8
ENDMDL
MODEL      531
REMARK  Name = ZINC20203720
REMARK  9 active torsions:
REMARK  status: ('A' for Active; 'I' for Inactive)
REMARK    1  A    between atoms: C_1  and  N_2
REMARK    2  A    between atoms: C_4  and  C_11
REMARK    3  A    between atoms: N_7  and  C_10
REMARK    4  A    between atoms: C_11  and  N_12
REMARK    5  A    between atoms: N_12  and  C_13
REMARK    6  A    between atoms: C_13  and  C_14
REMARK    7  A    between atoms: C_14  and  N_15
REMARK    8  A    between atoms: N_15  and  S_16
REMARK    9  A    between atoms: S_16  and  C_19
REMARK                            x       y       z     vdW  Elec       q    Type
REMARK                         _______ _______ _______ _____ _____    ______ ____
ROOT
ATOM      1  C   UNL     1      -0.795   1.527  -1.120  0.00  0.00    +0.000 C 
ENDROOT
BRANCH   1   5
ATOM      2  C   UNL     1      -5.540   1.820   0.190  0.00  0.00    +0.000 C 
ATOM      3  N   UNL     1      -4.448   1.084  -0.453  0.00  0.00    +0.000 N 
ATOM      4  C   UNL     1      -3.191   1.623  -0.479  0.00  0.00    +0.000 A 
ATOM      5  C   UNL     1      -2.186   0.947  -1.076  0.00  0.00    +0.000 A 
ATOM      6  C   UNL     1      -2.454  -0.317  -1.656  0.00  0.00    +0.000 A 
ATOM      7  O   UNL     1      -1.563  -0.947  -2.195  0.00  0.00    +0.000 OA
ATOM      8  N   UNL     1      -3.706  -0.816  -1.604  0.00  0.00    +0.000 N 
ATOM      9  C   UNL     1      -4.690  -0.118  -1.007  0.00  0.00    +0.000 A 
ATOM     10  O   UNL     1      -5.814  -0.580  -0.969  0.00  0.00    +0.000 OA
ATOM     11  C   UNL     1      -3.996  -2.122  -2.200  0.00  0.00    +0.000 C 
ENDBRANCH   1   5
BRANCH   1  12
ATOM     12  N   UNL     1      -0.012   1.005   0.008  0.00  0.00    +0.000 N 
ATOM     13  H   UNL     1      -0.473   1.263   0.891  0.00  0.00    +0.000 HD
ATOM     14  H   UNL     1       0.033  -0.022  -0.056  0.00  0.00    +0.000 HD
BRANCH  12  15
ATOM     15  C   UNL     1       1.353   1.550  -0.003  0.00  0.00    +0.000 C 
BRANCH  15  16
ATOM     16  C   UNL     1       2.136   0.985   1.184  0.00  0.00    +0.000 C 
BRANCH  16  17
ATOM     17  N   UNL     1       3.497   1.528   1.173  0.00  0.00    +0.000 NA
ATOM     18  H   UNL     1       3.860   1.993   0.329  0.00  0.00    +0.000 HD
BRANCH  17  19
ATOM     19  S   UNL     1       4.451   1.395   2.520  0.00  0.00    +0.000 S 
ATOM     20  O   UNL     1       5.668   2.040   2.167  0.00  0.00    +0.000 OA
ATOM     21  O   UNL     1       3.650   1.893   3.583  0.00  0.00    +0.000 OA
ATOM     22  C   UNL     1       4.725  -0.386   2.724  0.00  0.00    +0.000 C 
ENDBRANCH  17  19
ENDBRANCH  16  17
ENDBRANCH  15  16
ENDBRANCH  12  15
ENDBRANCH   1  12
TORSDOF 6
ENDMDL
MODEL      532
REMARK  Name = ZINC22593505
REMARK  8 active torsions:
REMARK  status: ('A' for Active; 'I' for Inactive)
REMARK    1  A    between atoms: C_1  and  C_2
REMARK    2  A    between atoms: C_2  and  C_3
REMARK    3  A    between atoms: C_3  and  C_4
REMARK    4  A    between atoms: C_4  and  N_5
REMARK    5  A    between atoms: N_5  and  C_6
REMARK    6  A    between atoms: C_12  and  N_13
REMARK    7  A    between atoms: N_13  and  C_14
REMARK    8  A    between atoms: C_14  and  C_15
REMARK                            x       y       z     vdW  Elec       q    Type
REMARK                         _______ _______ _______ _____ _____    ______ ____
ROOT
ATOM      1  C   UNL     1      -2.916   2.143  -0.970  0.00  0.00    +0.000 C 
ATOM      2  C   UNL     1      -3.803   2.152   0.295  0.00  0.00    +0.000 C 
ATOM      3  S   UNL     1      -2.534   1.982   1.627  0.00  0.00    +0.000 S 
ATOM      4  O   UNL     1      -3.067   1.202   2.689  0.00  0.00    +0.000 OA
ATOM      5  O   UNL     1      -1.966   3.255   1.901  0.00  0.00    +0.000 OA
ATOM      6  C   UNL     1      -1.325   0.967   0.671  0.00  0.00    +0.000 C 
ATOM      7  C   UNL     1      -1.556   1.493  -0.764  0.00  0.00    +0.000 C 
ENDROOT
BRANCH   1   8
ATOM      8  N   UNL     1      -3.626   1.418  -2.032  0.00  0.00    +0.000 N 
ATOM      9  H   UNL     1      -3.967   0.520  -1.659  0.00  0.00    +0.000 HD
ATOM     10  H   UNL     1      -2.975   1.229  -2.807  0.00  0.00    +0.000 HD
BRANCH   8  11
ATOM     11  C   UNL     1      -4.765   2.199  -2.532  0.00  0.00    +0.000 C 
BRANCH  11  12
ATOM     12  C   UNL     1      -5.478   1.413  -3.634  0.00  0.00    +0.000 C 
BRANCH  12  14
ATOM     13  C   UNL     1      -7.377   1.441  -5.257  0.00  0.00    +0.000 C 
ATOM     14  C   UNL     1      -6.664   2.227  -4.155  0.00  0.00    +0.000 C 
ENDBRANCH  12  14
ENDBRANCH  11  12
ENDBRANCH   8  11
ENDBRANCH   1   8
BRANCH   7  15
ATOM     15  N   UNL     1      -1.431   0.368  -1.701  0.00  0.00    +0.000 NA
ATOM     16  H   UNL     1      -0.453   0.046  -1.718  0.00  0.00    +0.000 HD
BRANCH  15  17
ATOM     17  C   UNL     1      -2.300  -0.747  -1.305  0.00  0.00    +0.000 C 
BRANCH  17  18
ATOM     18  C   UNL     1      -2.275  -1.809  -2.374  0.00  0.00    +0.000 C 
ATOM     19  O   UNL     1      -1.601  -1.652  -3.364  0.00  0.00    +0.000 OA
ATOM     20  O   UNL     1      -3.001  -2.928  -2.225  0.00  0.00    +0.000 OA
ENDBRANCH  17  18
ENDBRANCH  15  17
ENDBRANCH   7  15
TORSDOF 7
ENDMDL
MODEL      533
REMARK  Name = ZINC05908520
REMARK  11 active torsions:
REMARK  status: ('A' for Active; 'I' for Inactive)
REMARK    1  A    between atoms: C_1  and  C_2
REMARK    2  A    between atoms: C_2  and  C_3
REMARK    3  A    between atoms: C_5  and  O_22
REMARK    4  A    between atoms: C_8  and  C_14
REMARK    5  A    between atoms: C_14  and  N_23
REMARK    6  A    between atoms: CA_15  and  CB_16
REMARK    7  A    between atoms: CA_15  and  C_20
REMARK    8  A    between atoms: CA_15  and  N_23
REMARK    9  A    between atoms: CB_16  and  CG_17
REMARK   10  A    between atoms: CG_17  and  CD1_18
REMARK   11  A    between atoms: CG_17  and  CD2_19
REMARK                            x       y       z     vdW  Elec       q    Type
REMARK                         _______ _______ _______ _____ _____    ______ ____
ROOT
ATOM      1  C   UNL     1      -0.749   3.086   1.275  0.00  0.00    +0.000 A 
ATOM      2  C   UNL     1       0.217   3.802   1.956  0.00  0.00    +0.000 A 
ATOM      3  C   UNL     1       0.185   5.187   1.949  0.00  0.00    +0.000 A 
ATOM      4  O   UNL     1      -0.773   5.858   1.300  0.00  0.00    +0.000 OA
ATOM      5  C   UNL     1      -1.744   5.210   0.624  0.00  0.00    +0.000 A 
ATOM      6  C   UNL     1      -2.729   5.915  -0.040  0.00  0.00    +0.000 A 
ATOM      7  C   UNL     1      -3.727   5.225  -0.735  0.00  0.00    +0.000 A 
ATOM      8  O   UNL     1      -4.678   5.903  -1.377  0.00  0.00    +0.000 OA
ATOM      9  C   UNL     1      -3.732   3.817  -0.759  0.00  0.00    +0.000 A 
ATOM     10  C   UNL     1      -2.769   3.115  -0.109  0.00  0.00    +0.000 A 
ATOM     11  C   UNL     1      -1.758   3.796   0.594  0.00  0.00    +0.000 A 
ENDROOT
BRANCH   1  13
ATOM     12  C   UNL     1      -0.013   1.086   0.008  0.00  0.00    +0.000 C 
ATOM     13  C   UNL     1      -0.729   1.579   1.267  0.00  0.00    +0.000 C 
ENDBRANCH   1  13
BRANCH   3  14
ATOM     14  O   UNL     1       1.137   5.872   2.612  0.00  0.00    +0.000 OA
ATOM     15  H   UNL     1       1.996   5.558   2.234  0.00  0.00    +0.000 HD
ENDBRANCH   3  14
BRANCH   6  16
ATOM     16  C   ACE A   0      -2.727   7.421  -0.017  0.00  0.00    +0.000 C 
BRANCH  16  17
ATOM     17  N   UNL     1      -3.515   7.888   1.139  0.00  0.00    +0.000 N 
ATOM     18  H1  UNL     1      -4.481   7.539   1.058  0.00  0.00    +0.000 HD
ATOM     19  H2  UNL     1      -3.098   7.523   2.008  0.00  0.00    +0.000 HD
BRANCH  17  20
ATOM     20  CA  UNL     1      -3.531   9.362   1.187  0.00  0.00    +0.000 C 
BRANCH  20  21
ATOM     21  C   UNL     1      -4.635   9.882   0.304  0.00  0.00    +0.000 C 
ATOM     22  O   UNL     1      -5.333   9.110  -0.309  0.00  0.00    +0.000 OA
ATOM     23  OXT UNL     1      -4.843  11.204   0.197  0.00  0.00    +0.000 OA
ENDBRANCH  20  21
BRANCH  20  24
ATOM     24  CB  UNL     1      -3.775   9.815   2.628  0.00  0.00    +0.000 C 
BRANCH  24  25
ATOM     25  CG  UNL     1      -2.592   9.394   3.502  0.00  0.00    +0.000 C 
ATOM     26  CD1 UNL     1      -1.334  10.139   3.051  0.00  0.00    +0.000 C 
ATOM     27  CD2 UNL     1      -2.890   9.736   4.964  0.00  0.00    +0.000 C 
ENDBRANCH  24  25
ENDBRANCH  20  24
ENDBRANCH  17  20
ENDBRANCH  16  17
ENDBRANCH   6  16
TORSDOF 8
ENDMDL
MODEL      534
REMARK  Name = ZINC05955014
REMARK  7 active torsions:
REMARK  status: ('A' for Active; 'I' for Inactive)
REMARK    1  A    between atoms: N_7  and  C_9
REMARK    2  A    between atoms: C_9  and  O_10
REMARK    3  A    between atoms: O_10  and  C_11
REMARK    4  A    between atoms: C_11  and  C_12
REMARK    5  A    between atoms: C_11  and  C_16
REMARK    6  A    between atoms: C_12  and  N_13
REMARK    7  A    between atoms: C_16  and  O_17
REMARK                            x       y       z     vdW  Elec       q    Type
REMARK                         _______ _______ _______ _____ _____    ______ ____
ROOT
ATOM      1  C   UNL     1      -1.301   2.101   0.020  0.00  0.00    +0.000 C 
ENDROOT
BRANCH   1   8
ATOM      2  C   UNL     1       1.141  -0.638  -0.012  0.00  0.00    +0.000 A 
ATOM      3  C   UNL     1       2.386   0.135  -0.020  0.00  0.00    +0.000 A 
ATOM      4  O   UNL     1       3.464  -0.431  -0.034  0.00  0.00    +0.000 OA
ATOM      5  N   UNL     1       2.324   1.483  -0.012  0.00  0.00    +0.000 N 
ATOM      6  C   UNL     1       1.128   2.102   0.003  0.00  0.00    +0.000 A 
ATOM      7  O   UNL     1       1.082   3.317   0.009  0.00  0.00    +0.000 OA
ATOM      8  N   UNL     1      -0.017   1.396   0.010  0.00  0.00    +0.000 N 
ATOM      9  N   UNL     1       0.002  -0.004   0.002  0.00  0.00    +0.000 NA
ATOM     10  H   UNL     1       3.191   2.039  -0.017  0.00  0.00    +0.000 HD
ENDBRANCH   1   8
BRANCH   1  11
ATOM     11  O   UNL     1      -1.712   2.323   1.370  0.00  0.00    +0.000 OA
BRANCH  11  12
ATOM     12  C   UNL     1      -1.073   3.437   1.997  0.00  0.00    +0.000 C 
BRANCH  12  13
ATOM     13  C   UNL     1      -1.900   4.701   1.756  0.00  0.00    +0.000 C 
BRANCH  13  14
ATOM     14  O   UNL     1      -3.164   4.575   2.410  0.00  0.00    +0.000 OA
ATOM     15  H   UNL     1      -3.023   4.453   3.382  0.00  0.00    +0.000 HD
ENDBRANCH  13  14
ENDBRANCH  12  13
BRANCH  12  16
ATOM     16  C   UNL     1      -0.959   3.180   3.501  0.00  0.00    +0.000 C 
BRANCH  16  17
ATOM     17  N   UNL     1      -0.069   2.040   3.735  0.00  0.00    +0.000 NA
ATOM     18  N   UNL     1       0.866   2.173   4.345  0.00  0.00    +0.000 NA
ATOM     19  N   UNL     1       1.801   2.305   4.954  0.00  0.00    +0.000 NA
ENDBRANCH  16  17
ENDBRANCH  12  16
ENDBRANCH  11  12
ENDBRANCH   1  11
TORSDOF 7
ENDMDL
MODEL      535
REMARK  Name = ZINC05845020
REMARK  9 active torsions:
REMARK  status: ('A' for Active; 'I' for Inactive)
REMARK    1  A    between atoms: C_1  and  C_2
REMARK    2  A    between atoms: C_2  and  O_3
REMARK    3  A    between atoms: O_3  and  P_4
REMARK    4  A    between atoms: P_4  and  C_6
REMARK    5  A    between atoms: C_6  and  O_7
REMARK    6  A    between atoms: O_7  and  C_8
REMARK    7  A    between atoms: C_8  and  C_9
REMARK    8  A    between atoms: C_9  and  N_10
REMARK    9  A    between atoms: C_18  and  N_19
REMARK                            x       y       z     vdW  Elec       q    Type
REMARK                         _______ _______ _______ _____ _____    ______ ____
ROOT
ATOM      1  N   UNL     1       2.085   0.759  -0.014  0.00  0.00    +0.000 N 
ATOM      2  C   UNL     1       1.205   1.800   0.000  0.00  0.00    +0.000 A 
ATOM      3  N   UNL     1      -0.016   1.351   0.009  0.00  0.00    +0.000 NA
ATOM      4  C   UNL     1       0.002  -0.004   0.002  0.00  0.00    +0.000 A 
ATOM      5  C   UNL     1       1.350  -0.400  -0.013  0.00  0.00    +0.000 A 
ATOM      6  N   UNL     1       1.643  -1.696  -0.024  0.00  0.00    +0.000 NA
ATOM      7  C   UNL     1       0.686  -2.600  -0.020  0.00  0.00    +0.000 A 
ATOM      8  N   UNL     1      -0.594  -2.277  -0.006  0.00  0.00    +0.000 NA
ATOM      9  C   UNL     1      -0.983  -1.006   0.005  0.00  0.00    +0.000 A 
ENDROOT
BRANCH   9  10
ATOM     10  N   UNL     1      -2.327  -0.677   0.020  0.00  0.00    +0.000 N 
ATOM     11  H   UNL     1      -2.606   0.315   0.029  0.00  0.00    +0.000 HD
ATOM     12  H   UNL     1      -3.045  -1.416   0.023  0.00  0.00    +0.000 HD
ENDBRANCH   9  10
BRANCH   1  13
ATOM     13  C   UNL     1       3.546   0.859  -0.028  0.00  0.00    +0.000 C 
BRANCH  13  14
ATOM     14  C   UNL     1       4.049   0.777  -1.470  0.00  0.00    +0.000 C 
BRANCH  14  15
ATOM     15  O   UNL     1       5.475   0.875  -1.484  0.00  0.00    +0.000 OA
BRANCH  15  16
ATOM     16  C   UNL     1       6.050   0.808  -2.790  0.00  0.00    +0.000 C 
BRANCH  16  17
ATOM     17  P   UNL     1       5.774   2.388  -3.657  0.00  0.00    +0.000 P 
ATOM     18  O   UNL     1       4.320   2.641  -3.770  0.00  0.00    +0.000 OA
ATOM     19  O   UNL     1       6.464   3.583  -2.827  0.00  0.00    +0.000 OA
BRANCH  17  20
ATOM     20  O   UNL     1       6.421   2.313  -5.129  0.00  0.00    +0.000 OA
BRANCH  20  22
ATOM     21  C   UNL     1       7.016   2.966  -7.379  0.00  0.00    +0.000 C 
ATOM     22  C   UNL     1       6.282   3.357  -6.094  0.00  0.00    +0.000 C 
ENDBRANCH  20  22
ENDBRANCH  17  20
ENDBRANCH  16  17
ENDBRANCH  15  16
ENDBRANCH  14  15
ENDBRANCH  13  14
ENDBRANCH   1  13
TORSDOF 8
ENDMDL
MODEL      536
REMARK  Name = ZINC05621432
REMARK  7 active torsions:
REMARK  status: ('A' for Active; 'I' for Inactive)
REMARK    1  A    between atoms: N_7  and  C_10
REMARK    2  A    between atoms: C_10  and  C_11
REMARK    3  A    between atoms: C_11  and  C_12
REMARK    4  A    between atoms: C_12  and  C_13
REMARK    5  A    between atoms: C_13  and  C_14
REMARK    6  A    between atoms: C_14  and  C_15
REMARK    7  A    between atoms: C_15  and  N_16
REMARK                            x       y       z     vdW  Elec       q    Type
REMARK                         _______ _______ _______ _____ _____    ______ ____
ROOT
ATOM      1  C   UNL     1       1.272  -2.577  -1.466  0.00  0.00    +0.000 C 
ENDROOT
BRANCH   1   2
ATOM      2  C   UNL     1       1.332  -4.106  -1.475  0.00  0.00    +0.000 C 
BRANCH   2   3
ATOM      3  C   UNL     1       1.339  -4.608  -2.921  0.00  0.00    +0.000 C 
BRANCH   3   4
ATOM      4  C   UNL     1       1.399  -6.137  -2.929  0.00  0.00    +0.000 C 
BRANCH   4   5
ATOM      5  C   UNL     1       1.405  -6.639  -4.375  0.00  0.00    +0.000 C 
BRANCH   5   6
ATOM      6  N   UNL     1       1.463  -8.102  -4.383  0.00  0.00    +0.000 N 
ATOM      7  C   UNL     1       1.479  -8.770  -5.554  0.00  0.00    +0.000 C 
ATOM      8  O   UNL     1       1.445  -8.156  -6.604  0.00  0.00    +0.000 OA
ATOM      9  N   UNL     1       1.532 -10.116  -5.562  0.00  0.00    +0.000 N 
ATOM     10  H   UNL     1       1.492  -8.622  -3.494  0.00  0.00    +0.000 HD
ATOM     11  H   UNL     1       1.561 -10.636  -4.673  0.00  0.00    +0.000 HD
ATOM     12  H   UNL     1       1.544 -10.626  -6.457  0.00  0.00    +0.000 HD
ENDBRANCH   5   6
ENDBRANCH   4   5
ENDBRANCH   3   4
ENDBRANCH   2   3
ENDBRANCH   1   2
BRANCH   1  13
ATOM     13  C   UNL     1       1.265  -2.075  -0.021  0.00  0.00    +0.000 C 
BRANCH  13  20
ATOM     14  C   UNL     1      -0.018   1.513   0.010  0.00  0.00    +0.000 A 
ATOM     15  C   UNL     1       1.333   2.202   0.001  0.00  0.00    +0.000 A 
ATOM     16  O   UNL     1       1.423   3.411   0.006  0.00  0.00    +0.000 OA
ATOM     17  N   UNL     1       2.433   1.419  -0.013  0.00  0.00    +0.000 N 
ATOM     18  C   UNL     1       2.351   0.083  -0.019  0.00  0.00    +0.000 A 
ATOM     19  O   UNL     1       3.391  -0.544  -0.032  0.00  0.00    +0.000 OA
ATOM     20  N   UNL     1       1.208  -0.612  -0.013  0.00  0.00    +0.000 N 
ATOM     21  C   UNL     1       0.002  -0.004   0.002  0.00  0.00    +0.000 A 
ATOM     22  O   UNL     1      -1.026  -0.647   0.008  0.00  0.00    +0.000 OA
ATOM     23  H   UNL     1       3.362   1.862  -0.018  0.00  0.00    +0.000 HD
ENDBRANCH  13  20
ENDBRANCH   1  13
TORSDOF 7
ENDMDL
MODEL      537
REMARK  Name = ZINC02710425
REMARK  7 active torsions:
REMARK  status: ('A' for Active; 'I' for Inactive)
REMARK    1  A    between atoms: C_3  and  C_6
REMARK    2  A    between atoms: C_6  and  N_23
REMARK    3  A    between atoms: CA_7  and  C_8
REMARK    4  A    between atoms: CA_7  and  C_21
REMARK    5  A    between atoms: CA_7  and  N_23
REMARK    6  A    between atoms: C_8  and  C_9
REMARK    7  A    between atoms: N_11  and  C_12
REMARK                            x       y       z     vdW  Elec       q    Type
REMARK                         _______ _______ _______ _____ _____    ______ ____
ROOT
ATOM      1  C   UNL     1       2.684   3.982  -0.614  0.00  0.00    +0.000 C 
ENDROOT
BRANCH   1   2
ATOM      2  C   UNL     1       2.735   3.583  -2.066  0.00  0.00    +0.000 C 
ATOM      3  O   UNL     1       1.817   2.960  -2.556  0.00  0.00    +0.000 OA
ATOM      4  N   UNL     1       3.801   3.918  -2.820  0.00  0.00    +0.000 N 
ATOM      5  H   UNL     1       4.547   4.507  -2.424  0.00  0.00    +0.000 HD
BRANCH   4   6
ATOM      6  C   UNL     1       3.894   3.465  -4.142  0.00  0.00    +0.000 A 
ATOM      7  C   UNL     1       5.133   3.146  -4.681  0.00  0.00    +0.000 A 
ATOM      8  C   UNL     1       5.226   2.695  -5.984  0.00  0.00    +0.000 A 
ATOM      9  C   UNL     1       4.084   2.568  -6.759  0.00  0.00    +0.000 A 
ATOM     10  C   UNL     1       2.840   2.893  -6.223  0.00  0.00    +0.000 A 
ATOM     11  C   UNL     1       2.748   3.340  -4.915  0.00  0.00    +0.000 A 
ATOM     12  O   UNL     1       1.886   2.685  -7.176  0.00  0.00    +0.000 OA
ATOM     13  C   UNL     1       2.599   2.622  -8.426  0.00  0.00    +0.000 C 
ATOM     14  O   UNL     1       3.908   2.157  -8.050  0.00  0.00    +0.000 OA
ENDBRANCH   4   6
ENDBRANCH   1   2
BRANCH   1  15
ATOM     15  CA  UNL     1       1.378   3.482   0.007  0.00  0.00    +0.000 C 
BRANCH  15  16
ATOM     16  C   UNL     1       1.270   3.986   1.424  0.00  0.00    +0.000 C 
ATOM     17  O   UNL     1       1.192   3.201   2.339  0.00  0.00    +0.000 OA
ATOM     18  OXT UNL     1       1.261   5.306   1.668  0.00  0.00    +0.000 OA
ENDBRANCH  15  16
BRANCH  15  19
ATOM     19  N   UNL     1       1.375   2.007   0.007  0.00  0.00    +0.000 N 
ATOM     20  H1  UNL     1       1.872   1.666   0.843  0.00  0.00    +0.000 HD
ATOM     21  H2  UNL     1       1.859   1.666  -0.836  0.00  0.00    +0.000 HD
BRANCH  19  22
ATOM     22  C   UNL     1      -0.009   1.498   0.019  0.00  0.00    +0.000 C 
BRANCH  22  25
ATOM     23  C   UNL     1       0.065  -2.132   0.651  0.00  0.00    +0.000 A 
ATOM     24  C   UNL     1       0.044  -0.795   1.110  0.00  0.00    +0.000 A 
ATOM     25  C   UNL     1       0.020  -0.009   0.019  0.00  0.00    +0.000 A 
ATOM     26  O   UNL     1       0.019  -0.794  -1.071  0.00  0.00    +0.000 OA
ATOM     27  C   UNL     1       0.053  -2.083  -0.694  0.00  0.00    +0.000 A 
ENDBRANCH  22  25
ENDBRANCH  19  22
ENDBRANCH  15  19
ENDBRANCH   1  15
TORSDOF 7
ENDMDL
MODEL      538
REMARK  Name = ZINC20015070
REMARK  7 active torsions:
REMARK  status: ('A' for Active; 'I' for Inactive)
REMARK    1  A    between atoms: C_1  and  C_2
REMARK    2  A    between atoms: C_2  and  N_3
REMARK    3  A    between atoms: C_7  and  C_8
REMARK    4  A    between atoms: C_8  and  N_9
REMARK    5  A    between atoms: N_9  and  S_10
REMARK    6  A    between atoms: S_10  and  C_13
REMARK    7  A    between atoms: CA_15  and  C_18
REMARK                            x       y       z     vdW  Elec       q    Type
REMARK                         _______ _______ _______ _____ _____    ______ ____
ROOT
ATOM      1  S   UNL     1       1.597   3.339   0.155  0.00  0.00    +0.000 S 
ATOM      2  O   UNL     1       2.826   3.470  -0.546  0.00  0.00    +0.000 OA
ATOM      3  O   UNL     1       0.410   4.001  -0.258  0.00  0.00    +0.000 OA
ENDROOT
BRANCH   1   4
ATOM      4  C   UNL     1       1.224   1.617   0.199  0.00  0.00    +0.000 A 
ATOM      5  C   UNL     1      -0.046   1.054   0.349  0.00  0.00    +0.000 A 
ATOM      6  CA  UNL     1       0.116  -0.316   0.329  0.00  0.00    +0.000 A 
ATOM      7  N   UNL     1       1.460  -0.571   0.169  0.00  0.00    +0.000 N 
ATOM      8  C   UNL     1       2.118   0.604   0.091  0.00  0.00    +0.000 A 
ATOM      9  H   UNL     1       1.891  -1.505   0.116  0.00  0.00    +0.000 HD
BRANCH   6  10
ATOM     10  C   UNL     1      -0.947  -1.317   0.456  0.00  0.00    +0.000 C 
ATOM     11  O   UNL     1      -2.102  -0.962   0.594  0.00  0.00    +0.000 OA
ATOM     12  OXT UNL     1      -0.644  -2.631   0.418  0.00  0.00    +0.000 OA
ENDBRANCH   6  10
ENDBRANCH   1   4
BRANCH   1  13
ATOM     13  N   UNL     1       1.888   3.817   1.714  0.00  0.00    +0.000 NA
ATOM     14  H   UNL     1       1.257   4.489   2.172  0.00  0.00    +0.000 HD
BRANCH  13  15
ATOM     15  C   UNL     1       3.043   3.282   2.440  0.00  0.00    +0.000 C 
BRANCH  15  20
ATOM     16  N   UNL     1       3.684   5.543   3.179  0.00  0.00    +0.000 N 
ATOM     17  C   UNL     1       4.730   6.039   4.114  0.00  0.00    +0.000 C 
ATOM     18  C   UNL     1       5.611   4.789   4.362  0.00  0.00    +0.000 C 
ATOM     19  C   UNL     1       4.577   3.640   4.399  0.00  0.00    +0.000 C 
ATOM     20  C   UNL     1       3.349   4.179   3.641  0.00  0.00    +0.000 C 
ATOM     21  H   UNL     1       4.021   5.541   2.205  0.00  0.00    +0.000 HD
BRANCH  16  23
ATOM     22  C   UNL     1       2.909   7.842   2.841  0.00  0.00    +0.000 C 
ATOM     23  C   UNL     1       2.499   6.412   3.199  0.00  0.00    +0.000 C 
ENDBRANCH  16  23
ENDBRANCH  15  20
ENDBRANCH  13  15
ENDBRANCH   1  13
TORSDOF 6
ENDMDL
MODEL      539
REMARK  Name = ZINC05250769
REMARK  9 active torsions:
REMARK  status: ('A' for Active; 'I' for Inactive)
REMARK    1  A    between atoms: C_1  and  N_21
REMARK    2  A    between atoms: C_2  and  N_21
REMARK    3  A    between atoms: C_3  and  C_4
REMARK    4  A    between atoms: C_3  and  N_21
REMARK    5  A    between atoms: C_4  and  C_5
REMARK    6  A    between atoms: C_5  and  N_6
REMARK    7  A    between atoms: C_7  and  C_9
REMARK    8  A    between atoms: N_11  and  C_12
REMARK    9  A    between atoms: C_15  and  N_18
REMARK                            x       y       z     vdW  Elec       q    Type
REMARK                         _______ _______ _______ _____ _____    ______ ____
ROOT
ATOM      1  C   UNL     1       1.121   1.697   0.006  0.00  0.00    +0.000 C 
ATOM      2  O   UNL     1       1.063   2.906  -0.075  0.00  0.00    +0.000 OA
ATOM      3  N   UNL     1      -0.011   0.966   0.007  0.00  0.00    +0.000 N 
ATOM      4  H   UNL     1       0.040  -0.063   0.009  0.00  0.00    +0.000 HD
ENDROOT
BRANCH   3   5
ATOM      5  C   UNL     1      -1.254   1.604   0.007  0.00  0.00    +0.000 A 
ATOM      6  C   UNL     1      -2.324   1.044   0.695  0.00  0.00    +0.000 A 
ATOM      7  C   UNL     1      -3.550   1.681   0.697  0.00  0.00    +0.000 A 
ATOM      8  C   UNL     1      -3.716   2.867   0.006  0.00  0.00    +0.000 A 
ATOM      9  C   UNL     1      -2.655   3.424  -0.684  0.00  0.00    +0.000 A 
ATOM     10  C   UNL     1      -1.425   2.796  -0.685  0.00  0.00    +0.000 A 
BRANCH   8  11
ATOM     11  N   UNL     1      -5.033   3.543   0.006  0.00  0.00    +0.000 N 
ATOM     12  O   UNL     1      -5.181   4.588  -0.601  0.00  0.00    +0.000 OA
ATOM     13  O   UNL     1      -5.969   3.054   0.614  0.00  0.00    +0.000 OA
ENDBRANCH   8  11
ENDBRANCH   3   5
BRANCH   1  15
ATOM     14  N   UNL     1       3.581   1.749   0.103  0.00  0.00    +0.000 N 
ATOM     15  C   UNL     1       2.448   1.018   0.104  0.00  0.00    +0.000 C 
ATOM     16  O   UNL     1       2.507  -0.192   0.185  0.00  0.00    +0.000 OA
ATOM     17  H   UNL     1       3.531   2.775   0.034  0.00  0.00    +0.000 HD
BRANCH  14  18
ATOM     18  C   UNL     1       4.882   1.083   0.200  0.00  0.00    +0.000 C 
BRANCH  18  19
ATOM     19  C   UNL     1       5.995   2.133   0.177  0.00  0.00    +0.000 C 
BRANCH  19  20
ATOM     20  C   UNL     1       7.354   1.438   0.278  0.00  0.00    +0.000 C 
BRANCH  20  23
ATOM     21  C   UNL     1       8.373   3.292   1.456  0.00  0.00    +0.000 C 
ATOM     22  C   UNL     1       9.740   1.813   0.112  0.00  0.00    +0.000 C 
ATOM     23  N   UNL     1       8.418   2.462   0.233  0.00  0.00    +0.000 N 
ATOM     24  H   UNL     1       8.266   3.067  -0.587  0.00  0.00    +0.000 HD
ENDBRANCH  20  23
ENDBRANCH  19  20
ENDBRANCH  18  19
ENDBRANCH  14  18
ENDBRANCH   1  15
TORSDOF 7
ENDMDL
MODEL      540
REMARK  Name = ZINC02837242
REMARK  8 active torsions:
REMARK  status: ('A' for Active; 'I' for Inactive)
REMARK    1  A    between atoms: C_1  and  C_2
REMARK    2  A    between atoms: C_2  and  N_18
REMARK    3  A    between atoms: C_3  and  C_4
REMARK    4  A    between atoms: C_3  and  N_18
REMARK    5  A    between atoms: C_5  and  C_6
REMARK    6  A    between atoms: C_5  and  N_18
REMARK    7  A    between atoms: C_6  and  N_7
REMARK    8  A    between atoms: C_8  and  C_9
REMARK                            x       y       z     vdW  Elec       q    Type
REMARK                         _______ _______ _______ _____ _____    ______ ____
ROOT
ATOM      1  C   UNL     1      -0.073   3.935  -0.004  0.00  0.00    +0.000 C 
ATOM      2  C   UNL     1       1.189   3.176  -0.054  0.00  0.00    +0.000 C 
ATOM      3  O   UNL     1       2.262   3.750  -0.086  0.00  0.00    +0.000 OA
ATOM      4  N   UNL     1       1.124   1.829  -0.065  0.00  0.00    +0.000 N 
ATOM      5  C   UNL     1      -0.051   1.185  -0.031  0.00  0.00    +0.000 C 
ATOM      6  O   UNL     1      -0.041  -0.031  -0.043  0.00  0.00    +0.000 OA
ATOM      7  N   UNL     1      -1.236   1.809   0.011  0.00  0.00    +0.000 N 
ATOM      8  C   UNL     1      -1.324   3.155   0.032  0.00  0.00    +0.000 C 
ATOM      9  O   UNL     1      -2.405   3.711   0.073  0.00  0.00    +0.000 OA
ATOM     10  H   UNL     1       1.996   1.283  -0.100  0.00  0.00    +0.000 HD
ATOM     11  H   UNL     1      -2.100   1.249   0.027  0.00  0.00    +0.000 HD
ENDROOT
BRANCH   1  13
ATOM     12  N   UNL     1      -1.254   5.983  -0.073  0.00  0.00    +0.000 NA
ATOM     13  C   UNL     1      -0.085   5.317   0.009  0.00  0.00    +0.000 C 
BRANCH  12  14
ATOM     14  C   UNL     1      -1.266   7.447  -0.059  0.00  0.00    +0.000 C 
BRANCH  14  15
ATOM     15  C   UNL     1      -2.709   7.947  -0.163  0.00  0.00    +0.000 C 
BRANCH  15  16
ATOM     16  N   UNL     1      -2.706   9.424  -0.127  0.00  0.00    +0.000 N 
ATOM     17  H   UNL     1      -2.165   9.738   0.692  0.00  0.00    +0.000 HD
BRANCH  16  18
ATOM     18  C   UNL     1      -4.090   9.930  -0.009  0.00  0.00    +0.000 C 
ATOM     19  C   UNL     1      -4.042  11.410   0.375  0.00  0.00    +0.000 C 
ENDBRANCH  16  18
BRANCH  16  21
ATOM     20  C   UNL     1      -2.890   9.571  -2.587  0.00  0.00    +0.000 C 
ATOM     21  C   UNL     1      -2.075   9.959  -1.352  0.00  0.00    +0.000 C 
ENDBRANCH  16  21
ENDBRANCH  15  16
ENDBRANCH  14  15
ENDBRANCH  12  14
ENDBRANCH   1  13
TORSDOF 6
ENDMDL
MODEL      541
REMARK  Name = ZINC08703752
REMARK  3 active torsions:
REMARK  status: ('A' for Active; 'I' for Inactive)
REMARK    1  A    between atoms: C_6  and  C_7
REMARK    2  A    between atoms: C_12  and  C_14
REMARK    3  A    between atoms: C_14  and  N_20
REMARK                            x       y       z     vdW  Elec       q    Type
REMARK                         _______ _______ _______ _____ _____    ______ ____
ROOT
ATOM      1  C   UNL     1      -1.321   3.333   0.026  0.00  0.00    +0.000 A 
ATOM      2  C   UNL     1      -2.502   4.013   0.036  0.00  0.00    +0.000 A 
ATOM      3  C   UNL     1      -3.711   3.319   0.038  0.00  0.00    +0.000 A 
ATOM      4  C   UNL     1      -3.705   1.911   0.030  0.00  0.00    +0.000 A 
ATOM      5  C   UNL     1      -2.499   1.218   0.015  0.00  0.00    +0.000 A 
ATOM      6  C   UNL     1      -1.302   1.931   0.019  0.00  0.00    +0.000 A 
ATOM      7  C   UNL     1      -4.997   1.202   0.033  0.00  0.00    +0.000 A 
ATOM      8  O   UNL     1      -5.048  -0.017   0.027  0.00  0.00    +0.000 OA
ATOM      9  C   UNL     1      -6.177   1.984   0.043  0.00  0.00    +0.000 A 
ATOM     10  C   UNL     1      -6.095   3.330   0.050  0.00  0.00    +0.000 A 
ATOM     11  N   UNL     1      -4.911   3.989   0.048  0.00  0.00    +0.000 N 
ATOM     12  H   UNL     1      -4.910   5.019   0.053  0.00  0.00    +0.000 HD
ENDROOT
BRANCH   6  13
ATOM     13  C   UNL     1      -0.014   1.211   0.009  0.00  0.00    +0.000 C 
ATOM     14  O   UNL     1       0.002  -0.004   0.002  0.00  0.00    +0.000 OA
ATOM     15  O   UNL     1       1.143   1.900   0.001  0.00  0.00    +0.000 OA
ENDBRANCH   6  13
BRANCH  10  16
ATOM     16  C   UNL     1      -7.370   4.133   0.061  0.00  0.00    +0.000 C 
BRANCH  16  21
ATOM     17  C   UNL     1      -7.611   3.349  -2.217  0.00  0.00    +0.000 C 
ATOM     18  C   UNL     1      -7.914   3.793  -3.651  0.00  0.00    +0.000 C 
ATOM     19  C   UNL     1      -9.382   5.522  -2.804  0.00  0.00    +0.000 C 
ATOM     20  C   UNL     1      -9.079   5.078  -1.371  0.00  0.00    +0.000 C 
ATOM     21  N   UNL     1      -7.710   4.522  -1.324  0.00  0.00    +0.000 NA
ATOM     22  N   UNL     1      -9.273   4.365  -3.713  0.00  0.00    +0.000 N 
ATOM     23  H   UNL     1      -9.472   4.668  -4.677  0.00  0.00    +0.000 HD
ATOM     24  H   UNL     1      -9.959   3.648  -3.436  0.00  0.00    +0.000 HD
ENDBRANCH  16  21
ENDBRANCH  10  16
TORSDOF 3
ENDMDL
MODEL      542
REMARK  Name = ZINC06524891
REMARK  4 active torsions:
REMARK  status: ('A' for Active; 'I' for Inactive)
REMARK    1  A    between atoms: N_3  and  C_9
REMARK    2  A    between atoms: C_11  and  N_16
REMARK    3  A    between atoms: C_12  and  C_14
REMARK    4  A    between atoms: C_14  and  O_15
REMARK                            x       y       z     vdW  Elec       q    Type
REMARK                         _______ _______ _______ _____ _____    ______ ____
ROOT
ATOM      1  C   UNL     1       1.528   2.445   1.316  0.00  0.00    +0.000 C 
ATOM      2  C   UNL     1       1.427   1.647  -0.003  0.00  0.00    +0.000 C 
ATOM      3  C   UNL     1      -0.013   1.086   0.008  0.00  0.00    +0.000 C 
ATOM      4  C   UNL     1      -0.611   1.612   1.332  0.00  0.00    +0.000 C 
ATOM      5  O   UNL     1       0.532   1.858   2.180  0.00  0.00    +0.000 OA
ATOM      6  F   UNL     1       1.617   2.488  -1.104  0.00  0.00    +0.000 F 
ENDROOT
BRANCH   1   9
ATOM      7  C   UNL     1       4.913   3.229   2.550  0.00  0.00    +0.000 A 
ATOM      8  C   UNL     1       3.682   3.380   2.007  0.00  0.00    +0.000 A 
ATOM      9  N   UNL     1       2.863   2.296   1.901  0.00  0.00    +0.000 N 
ATOM     10  C   UNL     1       3.276   1.088   2.326  0.00  0.00    +0.000 A 
ATOM     11  O   UNL     1       2.531   0.128   2.220  0.00  0.00    +0.000 OA
ATOM     12  N   UNL     1       4.482   0.925   2.868  0.00  0.00    +0.000 NA
ATOM     13  C   UNL     1       5.313   1.951   2.991  0.00  0.00    +0.000 A 
ATOM     14  N   UNL     1       6.559   1.769   3.546  0.00  0.00    +0.000 N 
ATOM     15  H   UNL     1       7.201   2.570   3.639  0.00  0.00    +0.000 HD
ATOM     16  H   UNL     1       6.850   0.835   3.868  0.00  0.00    +0.000 HD
ENDBRANCH   1   9
BRANCH   3  17
ATOM     17  N   UNL     1      -0.770   1.594  -1.138  0.00  0.00    +0.000 NA
ATOM     18  N   UNL     1      -0.500   1.268  -2.179  0.00  0.00    +0.000 NA
ATOM     19  N   UNL     1      -0.231   0.941  -3.221  0.00  0.00    +0.000 NA
ENDBRANCH   3  17
BRANCH   4  20
ATOM     20  C   UNL     1      -1.523   0.557   1.960  0.00  0.00    +0.000 C 
BRANCH  20  21
ATOM     21  O   UNL     1      -2.156   1.104   3.119  0.00  0.00    +0.000 OA
ATOM     22  H   UNL     1      -2.694   1.893   2.861  0.00  0.00    +0.000 HD
ENDBRANCH  20  21
ENDBRANCH   4  20
TORSDOF 4
ENDMDL
MODEL      543
REMARK  Name = ZINC05828661
REMARK  3 active torsions:
REMARK  status: ('A' for Active; 'I' for Inactive)
REMARK    1  A    between atoms: C_2  and  C_3
REMARK    2  A    between atoms: C_2  and  N_12
REMARK    3  A    between atoms: N_12  and  N_13
REMARK                            x       y       z     vdW  Elec       q    Type
REMARK                         _______ _______ _______ _____ _____    ______ ____
ROOT
ATOM      1  C   UNL     1      -1.181   3.121   0.029  0.00  0.00    +0.000 A 
ATOM      2  C   UNL     1      -1.200   1.605   0.017  0.00  0.00    +0.000 A 
ATOM      3  O   UNL     1      -2.245   0.989   0.018  0.00  0.00    +0.000 OA
ATOM      4  N   UNL     1      -0.011   0.966   0.007  0.00  0.00    +0.000 N 
ATOM      5  C   UNL     1       1.150   1.631  -0.000  0.00  0.00    +0.000 A 
ATOM      6  O   UNL     1       2.173   0.976  -0.013  0.00  0.00    +0.000 OA
ATOM      7  N   UNL     1       1.266   2.963   0.005  0.00  0.00    +0.000 N 
ATOM      8  C   UNL     1       0.188   3.775   0.020  0.00  0.00    +0.000 A 
ATOM      9  O   UNL     1       0.308   4.981   0.025  0.00  0.00    +0.000 OA
ATOM     10  H   UNL     1       0.003  -0.064   0.006  0.00  0.00    +0.000 HD
ATOM     11  H   UNL     1       2.207   3.383  -0.001  0.00  0.00    +0.000 HD
ENDROOT
BRANCH   1  13
ATOM     12  C   UNL     1      -3.079   4.255  -1.026  0.00  0.00    +0.000 C 
ATOM     13  C   UNL     1      -1.941   3.606  -1.179  0.00  0.00    +0.000 C 
BRANCH  13  14
ATOM     14  N   UNL     1      -1.442   3.368  -2.454  0.00  0.00    +0.000 N 
ATOM     15  H   UNL     1      -0.554   2.861  -2.573  0.00  0.00    +0.000 HD
BRANCH  14  16
ATOM     16  N   UNL     1      -2.131   3.807  -3.549  0.00  0.00    +0.000 NA
ATOM     17  C   UNL     1      -2.579   2.678  -4.377  0.00  0.00    +0.000 C 
ATOM     18  C   UNL     1      -3.395   3.211  -5.558  0.00  0.00    +0.000 C 
ATOM     19  O   UNL     1      -2.601   4.142  -6.298  0.00  0.00    +0.000 OA
ATOM     20  C   UNL     1      -2.147   5.255  -5.522  0.00  0.00    +0.000 C 
ATOM     21  C   UNL     1      -1.319   4.743  -4.341  0.00  0.00    +0.000 C 
ENDBRANCH  14  16
ENDBRANCH  13  14
ENDBRANCH   1  13
TORSDOF 3
ENDMDL
MODEL      544
REMARK  Name = ZINC06528138
REMARK  2 active torsions:
REMARK  status: ('A' for Active; 'I' for Inactive)
REMARK    1  A    between atoms: C_3  and  C_6
REMARK    2  A    between atoms: N_14  and  N_15
REMARK                            x       y       z     vdW  Elec       q    Type
REMARK                         _______ _______ _______ _____ _____    ______ ____
ROOT
ATOM      1  C   UNL     1      -1.758   3.596  -1.695  0.00  0.00    +0.000 C 
ATOM      2  O   UNL     1      -1.638   3.109  -2.803  0.00  0.00    +0.000 OA
ATOM      3  N   UNL     1      -1.764   2.802  -0.606  0.00  0.00    +0.000 N 
ATOM      4  C   UNL     1      -1.791   1.339  -0.748  0.00  0.00    +0.000 C 
ATOM      5  C   UNL     1      -0.602   0.750   0.021  0.00  0.00    +0.000 C 
ATOM      6  N   UNL     1      -0.577   1.331   1.371  0.00  0.00    +0.000 N 
ATOM      7  C   UNL     1      -0.580   0.562   2.423  0.00  0.00    +0.000 C 
ATOM      8  N   UNL     1      -1.359  -0.571   2.445  0.00  0.00    +0.000 N 
ATOM      9  N   UNL     1       0.196   0.883   3.512  0.00  0.00    +0.000 N 
ATOM     10  C   UNL     1      -0.554   2.793   1.512  0.00  0.00    +0.000 C 
ATOM     11  C   UNL     1      -1.743   3.382   0.744  0.00  0.00    +0.000 C 
ATOM     12  H   UNL     1      -1.940  -0.812   1.630  0.00  0.00    +0.000 HD
ATOM     13  H   UNL     1      -1.362  -1.178   3.277  0.00  0.00    +0.000 HD
ATOM     14  H   UNL     1       0.696   1.783   3.540  0.00  0.00    +0.000 HD
ENDROOT
BRANCH   1  17
ATOM     15  C   UNL     1      -1.990   7.231  -1.951  0.00  0.00    +0.000 A 
ATOM     16  C   UNL     1      -1.786   5.974  -2.542  0.00  0.00    +0.000 A 
ATOM     17  C   UNL     1      -1.897   5.049  -1.543  0.00  0.00    +0.000 A 
ATOM     18  O   UNL     1      -2.162   5.704  -0.394  0.00  0.00    +0.000 OA
ATOM     19  C   UNL     1      -2.214   7.021  -0.635  0.00  0.00    +0.000 A 
ENDBRANCH   1  17
BRANCH   9  20
ATOM     20  N   UNL     1       0.306  -0.013   4.583  0.00  0.00    +0.000 N 
ATOM     21  O   UNL     1       0.128  -1.204   4.401  0.00  0.00    +0.000 OA
ATOM     22  O   UNL     1       0.579   0.399   5.696  0.00  0.00    +0.000 OA
ENDBRANCH   9  20
TORSDOF 2
ENDMDL
MODEL      545
REMARK  Name = ZINC17176085
REMARK  5 active torsions:
REMARK  status: ('A' for Active; 'I' for Inactive)
REMARK    1  A    between atoms: N_8  and  C_11
REMARK    2  A    between atoms: C_13  and  C_18
REMARK    3  A    between atoms: C_14  and  N_17
REMARK    4  A    between atoms: C_15  and  O_16
REMARK    5  A    between atoms: C_18  and  O_19
REMARK                            x       y       z     vdW  Elec       q    Type
REMARK                         _______ _______ _______ _____ _____    ______ ____
ROOT
ATOM      1  C   UNL     1      -1.441  -0.566  -0.034  0.00  0.00    +0.000 C 
ATOM      2  C   UNL     1      -1.242  -1.978  -0.640  0.00  0.00    +0.000 C 
ATOM      3  C   UNL     1      -0.143  -1.783  -1.706  0.00  0.00    +0.000 C 
ATOM      4  C   UNL     1       0.648  -0.528  -1.297  0.00  0.00    +0.000 C 
ATOM      5  C   UNL     1       0.002  -0.004   0.002  0.00  0.00    +0.000 C 
ENDROOT
BRANCH   1  13
ATOM      6  C   UNL     1      -5.024   1.247   2.052  0.00  0.00    +0.000 A 
ATOM      7  N   UNL     1      -5.205   0.925   3.310  0.00  0.00    +0.000 NA
ATOM      8  C   UNL     1      -4.367   0.095   3.956  0.00  0.00    +0.000 A 
ATOM      9  O   UNL     1      -4.541  -0.199   5.127  0.00  0.00    +0.000 OA
ATOM     10  C   UNL     1      -3.231  -0.442   3.191  0.00  0.00    +0.000 A 
ATOM     11  N   UNL     1      -2.226  -1.248   3.436  0.00  0.00    +0.000 NA
ATOM     12  N   UNL     1      -1.490  -1.400   2.392  0.00  0.00    +0.000 NA
ATOM     13  N   UNL     1      -1.998  -0.652   1.318  0.00  0.00    +0.000 N 
ATOM     14  C   UNL     1      -3.115  -0.015   1.788  0.00  0.00    +0.000 A 
ATOM     15  N   UNL     1      -4.029   0.804   1.303  0.00  0.00    +0.000 NA
ENDBRANCH   1  13
BRANCH   4  16
ATOM     16  N   UNL     1       2.054  -0.875  -1.056  0.00  0.00    +0.000 N 
ATOM     17  H   UNL     1       2.459  -1.271  -1.916  0.00  0.00    +0.000 HD
ATOM     18  H   UNL     1       2.107  -1.574  -0.302  0.00  0.00    +0.000 HD
ATOM     19  H   UNL     1       2.580  -0.032  -0.783  0.00  0.00    +0.000 HD
ENDBRANCH   4  16
BRANCH   5  20
ATOM     20  O   UNL     1      -0.017   1.425   0.010  0.00  0.00    +0.000 OA
ATOM     21  H   UNL     1      -0.513   1.737   0.808  0.00  0.00    +0.000 HD
ENDBRANCH   5  20
BRANCH   3  22
ATOM     22  C   UNL     1       0.783  -3.001  -1.732  0.00  0.00    +0.000 C 
BRANCH  22  23
ATOM     23  O   UNL     1       0.066  -4.135  -2.224  0.00  0.00    +0.000 OA
ATOM     24  H   UNL     1      -0.260  -3.948  -3.140  0.00  0.00    +0.000 HD
ENDBRANCH  22  23
ENDBRANCH   3  22
TORSDOF 5
ENDMDL
MODEL      546
REMARK  Name = ZINC05729759
REMARK  5 active torsions:
REMARK  status: ('A' for Active; 'I' for Inactive)
REMARK    1  A    between atoms: C_1  and  O_2
REMARK    2  A    between atoms: O_2  and  C_3
REMARK    3  A    between atoms: C_5  and  C_11
REMARK    4  A    between atoms: C_7  and  O_9
REMARK    5  A    between atoms: O_9  and  C_10
REMARK                            x       y       z     vdW  Elec       q    Type
REMARK                         _______ _______ _______ _____ _____    ______ ____
ROOT
ATOM      1  C   UNL     1       2.489   1.045  -0.016  0.00  0.00    +0.000 C 
ATOM      2  C   UNL     1       3.034   0.981   1.374  0.00  0.00    +0.000 C 
ATOM      3  N   UNL     1       4.183   1.519   1.558  0.00  0.00    +0.000 N 
ATOM      4  S   UNL     1       4.692   2.138   0.098  0.00  0.00    +0.000 S 
ATOM      5  O   UNL     1       5.819   1.376  -0.316  0.00  0.00    +0.000 OA
ATOM      6  O   UNL     1       4.713   3.554   0.217  0.00  0.00    +0.000 OA
ATOM      7  N   UNL     1       3.424   1.742  -0.915  0.00  0.00    +0.000 NA
ATOM      8  N   UNL     1       2.345   0.381   2.395  0.00  0.00    +0.000 N 
ATOM      9  H   UNL     1       4.699   1.561   2.449  0.00  0.00    +0.000 HD
ATOM     10  H   UNL     1       1.426  -0.036   2.190  0.00  0.00    +0.000 HD
ATOM     11  H   UNL     1       2.734   0.344   3.349  0.00  0.00    +0.000 HD
ENDROOT
BRANCH   1  14
ATOM     12  C   UNL     1      -1.224   1.753   0.017  0.00  0.00    +0.000 A 
ATOM     13  C   UNL     1      -0.013   1.076   0.008  0.00  0.00    +0.000 A 
ATOM     14  C   UNL     1       1.175   1.782   0.000  0.00  0.00    +0.000 A 
ATOM     15  C   UNL     1       1.159   3.164   0.007  0.00  0.00    +0.000 A 
ATOM     16  C   UNL     1      -0.049   3.845   0.022  0.00  0.00    +0.000 A 
ATOM     17  C   UNL     1      -1.242   3.139   0.029  0.00  0.00    +0.000 A 
BRANCH  12  19
ATOM     18  C   UNL     1      -3.600   1.819   0.029  0.00  0.00    +0.000 C 
ATOM     19  O   UNL     1      -2.392   1.057   0.020  0.00  0.00    +0.000 OA
ENDBRANCH  12  19
BRANCH  16  20
ATOM     20  O   UNL     1      -0.064   5.204   0.029  0.00  0.00    +0.000 OA
ATOM     21  C   UNL     1      -1.344   5.839   0.043  0.00  0.00    +0.000 C 
ENDBRANCH  16  20
ENDBRANCH   1  14
TORSDOF 3
ENDMDL
MODEL      547
REMARK  Name = ZINC05998325
REMARK  9 active torsions:
REMARK  status: ('A' for Active; 'I' for Inactive)
REMARK    1  A    between atoms: C_1  and  O_2
REMARK    2  A    between atoms: O_2  and  C_3
REMARK    3  A    between atoms: C_4  and  O_20
REMARK    4  A    between atoms: C_5  and  O_19
REMARK    5  A    between atoms: C_6  and  O_9
REMARK    6  A    between atoms: O_9  and  C_10
REMARK    7  A    between atoms: C_11  and  O_18
REMARK    8  A    between atoms: C_12  and  O_17
REMARK    9  A    between atoms: C_13  and  O_16
REMARK                            x       y       z     vdW  Elec       q    Type
REMARK                         _______ _______ _______ _____ _____    ______ ____
ROOT
ATOM      1  O   UNL     1       1.327   1.582  -0.002  0.00  0.00    +0.000 OA
ENDROOT
BRANCH   1   2
ATOM      2  C   UNL     1       2.259   0.727  -0.668  0.00  0.00    +0.000 C 
ATOM      3  C   UNL     1       3.627   1.410  -0.728  0.00  0.00    +0.000 C 
ATOM      4  C   UNL     1       4.634   0.463  -1.389  0.00  0.00    +0.000 C 
ATOM      5  C   UNL     1       4.673  -0.852  -0.604  0.00  0.00    +0.000 C 
ATOM      6  C   UNL     1       3.264  -1.447  -0.549  0.00  0.00    +0.000 C 
ATOM      7  O   UNL     1       2.373  -0.504   0.049  0.00  0.00    +0.000 OA
BRANCH   5   8
ATOM      8  O   UNL     1       5.556  -1.769  -1.252  0.00  0.00    +0.000 OA
ATOM      9  H   UNL     1       6.466  -1.381  -1.291  0.00  0.00    +0.000 HD
ENDBRANCH   5   8
BRANCH   4  10
ATOM     10  O   UNL     1       5.930   1.063  -1.382  0.00  0.00    +0.000 OA
ATOM     11  H   UNL     1       6.208   1.240  -0.448  0.00  0.00    +0.000 HD
ENDBRANCH   4  10
BRANCH   3  12
ATOM     12  O   UNL     1       3.528   2.612  -1.493  0.00  0.00    +0.000 OA
ATOM     13  H   UNL     1       2.874   3.221  -1.069  0.00  0.00    +0.000 HD
ENDBRANCH   3  12
ENDBRANCH   1   2
BRANCH   1  17
ATOM     14  C   UNL     1      -2.849   1.615  -0.059  0.00  0.00    +0.000 C 
ATOM     15  C   UNL     1      -2.190   1.107   1.226  0.00  0.00    +0.000 C 
ATOM     16  C   UNL     1      -0.732   1.581   1.266  0.00  0.00    +0.000 C 
ATOM     17  C   UNL     1      -0.013   1.086   0.008  0.00  0.00    +0.000 C 
ATOM     18  C   UNL     1      -0.756   1.594  -1.230  0.00  0.00    +0.000 C 
ATOM     19  O   UNL     1      -2.111   1.144  -1.189  0.00  0.00    +0.000 OA
BRANCH  14  21
ATOM     20  C   UNL     1      -4.934   1.638  -1.240  0.00  0.00    +0.000 C 
ATOM     21  O   UNL     1      -4.191   1.130  -0.131  0.00  0.00    +0.000 OA
ENDBRANCH  14  21
BRANCH  16  22
ATOM     22  O   UNL     1      -0.087   1.051   2.426  0.00  0.00    +0.000 OA
ATOM     23  H   UNL     1      -0.111   0.062   2.393  0.00  0.00    +0.000 HD
ENDBRANCH  16  22
BRANCH  15  24
ATOM     24  O   UNL     1      -2.892   1.623   2.358  0.00  0.00    +0.000 OA
ATOM     25  H   UNL     1      -3.834   1.320   2.329  0.00  0.00    +0.000 HD
ENDBRANCH  15  24
ENDBRANCH   1  17
TORSDOF 8
ENDMDL
MODEL      548
REMARK  Name = ZINC06315906
REMARK  4 active torsions:
REMARK  status: ('A' for Active; 'I' for Inactive)
REMARK    1  A    between atoms: C_8  and  C_10
REMARK    2  A    between atoms: C_11  and  N_22
REMARK    3  A    between atoms: N_12  and  N_16
REMARK    4  A    between atoms: C_17  and  C_19
REMARK                            x       y       z     vdW  Elec       q    Type
REMARK                         _______ _______ _______ _____ _____    ______ ____
ROOT
ATOM      1  C   UNL     1       0.232  -2.152   0.716  0.00  0.00    +0.000 A 
ATOM      2  C   UNL     1       0.307  -0.804   1.057  0.00  0.00    +0.000 A 
ATOM      3  N   UNL     1       0.002  -0.004   0.002  0.00  0.00    +0.000 N 
ATOM      4  C   UNL     1      -0.311  -0.865  -1.147  0.00  0.00    +0.000 A 
ATOM      5  C   UNL     1      -0.142  -2.279  -0.634  0.00  0.00    +0.000 A 
ATOM      6  O   UNL     1      -0.300  -3.311  -1.258  0.00  0.00    +0.000 OA
ENDROOT
BRANCH   1  14
ATOM      7  C   UNL     1       1.206  -7.104   3.966  0.00  0.00    +0.000 A 
ATOM      8  C   UNL     1       1.471  -6.180   4.966  0.00  0.00    +0.000 A 
ATOM      9  C   UNL     1       1.381  -4.830   4.711  0.00  0.00    +0.000 A 
ATOM     10  C   UNL     1       1.020  -4.387   3.435  0.00  0.00    +0.000 A 
ATOM     11  C   UNL     1       0.753  -5.328   2.426  0.00  0.00    +0.000 A 
ATOM     12  C   UNL     1       0.849  -6.684   2.702  0.00  0.00    +0.000 A 
ATOM     13  N   UNL     1       0.423  -4.601   1.296  0.00  0.00    +0.000 N 
ATOM     14  C   UNL     1       0.502  -3.274   1.630  0.00  0.00    +0.000 A 
ATOM     15  N   UNL     1       0.851  -3.155   2.891  0.00  0.00    +0.000 NA
ATOM     16  H   UNL     1       0.166  -4.985   0.375  0.00  0.00    +0.000 HD
ENDBRANCH   1  14
BRANCH   3  17
ATOM     17  N   UNL     1      -0.017   1.397   0.010  0.00  0.00    +0.000 N 
ATOM     18  C   UNL     1       1.141   2.087   0.002  0.00  0.00    +0.000 C 
ATOM     19  O   UNL     1       2.200   1.494  -0.011  0.00  0.00    +0.000 OA
ATOM     20  H   UNL     1      -0.916   1.900   0.021  0.00  0.00    +0.000 HD
BRANCH  18  21
ATOM     21  C   UNL     1       1.121   3.581   0.011  0.00  0.00    +0.000 C 
ATOM     22  O   UNL     1       0.062   4.173   0.024  0.00  0.00    +0.000 OA
ATOM     23  N   UNL     1       2.279   4.271   0.003  0.00  0.00    +0.000 N 
ATOM     24  H   UNL     1       3.178   3.768  -0.008  0.00  0.00    +0.000 HD
ATOM     25  H   UNL     1       2.265   5.300   0.009  0.00  0.00    +0.000 HD
ENDBRANCH  18  21
ENDBRANCH   3  17
BRANCH   2  26
ATOM     26  N   UNL     1       0.645  -0.344   2.295  0.00  0.00    +0.000 N 
ATOM     27  H   UNL     1       0.856  -1.051   3.014  0.00  0.00    +0.000 HD
ATOM     28  H   UNL     1       0.691   0.661   2.513  0.00  0.00    +0.000 HD
ENDBRANCH   2  26
TORSDOF 4
ENDMDL
MODEL      549
REMARK  Name = ZINC06928583
REMARK  6 active torsions:
REMARK  status: ('A' for Active; 'I' for Inactive)
REMARK    1  A    between atoms: C_1  and  S_2
REMARK    2  A    between atoms: S_2  and  C_5
REMARK    3  A    between atoms: C_6  and  C_14
REMARK    4  A    between atoms: N_7  and  C_12
REMARK    5  A    between atoms: C_12  and  C_13
REMARK    6  A    between atoms: C_13  and  N_20
REMARK                            x       y       z     vdW  Elec       q    Type
REMARK                         _______ _______ _______ _____ _____    ______ ____
ROOT
ATOM      1  C   UNL     1       0.582  -0.233  -4.321  0.00  0.00    +0.000 C 
ATOM      2  C   UNL     1      -0.366  -0.142  -3.114  0.00  0.00    +0.000 C 
ATOM      3  N   UNL     1      -0.067   1.120  -2.437  0.00  0.00    +0.000 N 
ATOM      4  C   UNL     1       0.908   1.792  -3.062  0.00  0.00    +0.000 C 
ATOM      5  O   UNL     1       1.339   2.868  -2.704  0.00  0.00    +0.000 OA
ATOM      6  C   UNL     1       1.398   1.041  -4.252  0.00  0.00    +0.000 C 
ATOM      7  O   UNL     1       2.270   1.383  -5.014  0.00  0.00    +0.000 OA
ENDROOT
BRANCH   2   8
ATOM      8  C   UNL     1      -1.798  -0.150  -3.582  0.00  0.00    +0.000 A 
ATOM      9  C   UNL     1      -2.367   1.005  -4.086  0.00  0.00    +0.000 A 
ATOM     10  C   UNL     1      -3.679   0.997  -4.519  0.00  0.00    +0.000 A 
ATOM     11  C   UNL     1      -4.426  -0.164  -4.440  0.00  0.00    +0.000 A 
ATOM     12  C   UNL     1      -3.860  -1.317  -3.930  0.00  0.00    +0.000 A 
ATOM     13  C   UNL     1      -2.546  -1.310  -3.501  0.00  0.00    +0.000 A 
ENDBRANCH   2   8
BRANCH   1  15
ATOM     14  C   UNL     1       0.935  -0.400  -7.128  0.00  0.00    +0.000 C 
ATOM     15  S   UNL     1      -0.364  -0.298  -5.867  0.00  0.00    +0.000 S 
ATOM     16  O   UNL     1      -1.108  -1.509  -5.888  0.00  0.00    +0.000 OA
ATOM     17  O   UNL     1      -1.049   0.937  -6.027  0.00  0.00    +0.000 OA
ENDBRANCH   1  15
BRANCH   3  18
ATOM     18  C   UNL     1      -0.753   1.593  -1.232  0.00  0.00    +0.000 C 
BRANCH  18  19
ATOM     19  C   UNL     1      -0.013   1.086   0.008  0.00  0.00    +0.000 C 
BRANCH  19  20
ATOM     20  N   UNL     1      -0.698   1.585   1.214  0.00  0.00    +0.000 N 
ATOM     21  H   UNL     1      -1.668   1.240   1.230  0.00  0.00    +0.000 HD
ATOM     22  H   UNL     1      -0.698   2.615   1.212  0.00  0.00    +0.000 HD
ATOM     23  H   UNL     1      -0.203   1.246   2.051  0.00  0.00    +0.000 HD
ENDBRANCH  19  20
ENDBRANCH  18  19
ENDBRANCH   3  18
TORSDOF 5
ENDMDL
MODEL      550
REMARK  Name = ZINC22033781
REMARK  5 active torsions:
REMARK  status: ('A' for Active; 'I' for Inactive)
REMARK    1  A    between atoms: C_2  and  C_18
REMARK    2  A    between atoms: C_3  and  N_17
REMARK    3  A    between atoms: C_5  and  S_7
REMARK    4  A    between atoms: S_7  and  C_8
REMARK    5  A    between atoms: C_8  and  C_9
REMARK                            x       y       z     vdW  Elec       q    Type
REMARK                         _______ _______ _______ _____ _____    ______ ____
ROOT
ATOM      1  C   UNL     1       4.733   4.153  -0.021  0.00  0.00    +0.000 A 
ATOM      2  C   UNL     1       6.059   3.708  -0.036  0.00  0.00    +0.000 A 
ATOM      3  C   UNL     1       6.295   2.316  -0.046  0.00  0.00    +0.000 A 
ATOM      4  N   UNL     1       5.256   1.490  -0.035  0.00  0.00    +0.000 NA
ATOM      5  C   UNL     1       4.017   1.960  -0.026  0.00  0.00    +0.000 A 
ATOM      6  N   UNL     1       3.757   3.263  -0.016  0.00  0.00    +0.000 NA
ENDROOT
BRANCH   3   7
ATOM      7  N   UNL     1       7.584   1.823  -0.061  0.00  0.00    +0.000 N 
ATOM      8  H   UNL     1       8.379   2.478  -0.065  0.00  0.00    +0.000 HD
ATOM      9  H   UNL     1       7.752   0.806  -0.068  0.00  0.00    +0.000 HD
ENDBRANCH   3   7
BRANCH   2  10
ATOM     10  C   UNL     1       7.147   4.639  -0.041  0.00  0.00    +0.000 C 
ATOM     11  N   UNL     1       8.010   5.378  -0.045  0.00  0.00    +0.000 NA
ENDBRANCH   2  10
BRANCH   5  12
ATOM     12  S   UNL     1       2.672   0.822  -0.019  0.00  0.00    +0.000 S 
BRANCH  12  13
ATOM     13  C   UNL     1       1.280   1.979   0.001  0.00  0.00    +0.000 C 
BRANCH  13  14
ATOM     14  C   UNL     1      -0.014   1.208   0.009  0.00  0.00    +0.000 C 
ATOM     15  O   UNL     1       0.002  -0.004   0.002  0.00  0.00    +0.000 OA
ATOM     16  N   UNL     1      -1.191   1.866   0.018  0.00  0.00    +0.000 N 
ATOM     17  C   UNL     1      -2.519   1.236   0.021  0.00  0.00    +0.000 C 
ATOM     18  C   UNL     1      -3.494   2.430   0.032  0.00  0.00    +0.000 C 
ATOM     19  N   UNL     1      -2.611   3.606   0.034  0.00  0.00    +0.000 NA
ATOM     20  C   UNL     1      -1.335   3.198   0.032  0.00  0.00    +0.000 C 
ATOM     21  O   UNL     1      -0.394   3.966   0.037  0.00  0.00    +0.000 OA
ENDBRANCH  13  14
ENDBRANCH  12  13
ENDBRANCH   5  12
TORSDOF 5
ENDMDL
MODEL      551
REMARK  Name = ZINC03870191
REMARK  5 active torsions:
REMARK  status: ('A' for Active; 'I' for Inactive)
REMARK    1  A    between atoms: C_3  and  O_19
REMARK    2  A    between atoms: C_4  and  O_18
REMARK    3  A    between atoms: C_5  and  N_20
REMARK    4  A    between atoms: C_6  and  C_7
REMARK    5  A    between atoms: C_6  and  N_20
REMARK                            x       y       z     vdW  Elec       q    Type
REMARK                         _______ _______ _______ _____ _____    ______ ____
ROOT
ATOM      1  C   UNL     1      -0.795   1.527  -1.120  0.00  0.00    +0.000 C 
ENDROOT
BRANCH   1   2
ATOM      2  C   UNL     1      -2.186   0.947  -1.076  0.00  0.00    +0.000 C 
ATOM      3  C   UNL     1      -3.283   1.512  -0.514  0.00  0.00    +0.000 C 
ATOM      4  C   UNL     1      -4.400   0.560  -0.733  0.00  0.00    +0.000 C 
ATOM      5  N   UNL     1      -5.581   0.887  -0.278  0.00  0.00    +0.000 NA
ATOM      6  C   UNL     1      -5.792   2.057   0.371  0.00  0.00    +0.000 C 
ATOM      7  N   UNL     1      -4.864   2.954   0.602  0.00  0.00    +0.000 NA
ATOM      8  C   UNL     1      -3.587   2.768   0.195  0.00  0.00    +0.000 C 
ATOM      9  O   UNL     1      -2.725   3.600   0.409  0.00  0.00    +0.000 OA
ATOM     10  N   UNL     1      -7.060   2.321   0.815  0.00  0.00    +0.000 N 
ATOM     11  N   UNL     1      -3.889  -0.519  -1.408  0.00  0.00    +0.000 NA
ATOM     12  C   UNL     1      -2.620  -0.353  -1.633  0.00  0.00    +0.000 C 
ATOM     13  H   UNL     1      -7.834   1.658   0.666  0.00  0.00    +0.000 HD
ATOM     14  H   UNL     1      -7.240   3.206   1.311  0.00  0.00    +0.000 HD
ENDBRANCH   1   2
BRANCH   1  15
ATOM     15  N   UNL     1      -0.015   0.998   0.015  0.00  0.00    +0.000 N 
ATOM     16  H   UNL     1       0.030  -0.029  -0.052  0.00  0.00    +0.000 HD
ATOM     17  H   UNL     1      -0.478   1.258   0.897  0.00  0.00    +0.000 HD
BRANCH  15  22
ATOM     18  C   UNL     1       2.268   0.662  -0.813  0.00  0.00    +0.000 C 
ATOM     19  C   UNL     1       3.010  -0.080  -0.038  0.00  0.00    +0.000 C 
ATOM     20  C   UNL     1       2.714   0.188   1.419  0.00  0.00    +0.000 C 
ATOM     21  C   UNL     1       1.950   1.533   1.424  0.00  0.00    +0.000 C 
ATOM     22  C   UNL     1       1.353   1.550  -0.003  0.00  0.00    +0.000 C 
BRANCH  21  23
ATOM     23  O   UNL     1       2.845   2.630   1.618  0.00  0.00    +0.000 OA
ATOM     24  H   UNL     1       3.513   2.631   0.887  0.00  0.00    +0.000 HD
ENDBRANCH  21  23
BRANCH  20  25
ATOM     25  O   UNL     1       3.929   0.303   2.162  0.00  0.00    +0.000 OA
ATOM     26  H   UNL     1       4.466   1.048   1.791  0.00  0.00    +0.000 HD
ENDBRANCH  20  25
ENDBRANCH  15  22
ENDBRANCH   1  15
TORSDOF 5
ENDMDL
MODEL      552
REMARK  Name = ZINC02290632
REMARK  6 active torsions:
REMARK  status: ('A' for Active; 'I' for Inactive)
REMARK    1  A    between atoms: C_1  and  N_2
REMARK    2  A    between atoms: N_7  and  C_10
REMARK    3  A    between atoms: C_12  and  N_14
REMARK    4  A    between atoms: N_15  and  N_16
REMARK    5  A    between atoms: N_16  and  C_17
REMARK    6  A    between atoms: N_16  and  N_18
REMARK                            x       y       z     vdW  Elec       q    Type
REMARK                         _______ _______ _______ _____ _____    ______ ____
ROOT
ATOM      1  C   UNL     1      -1.575   4.809   2.709  0.00  0.00    +0.000 C 
ATOM      2  N   UNL     1      -1.452   3.361   2.517  0.00  0.00    +0.000 N 
ATOM      3  C   UNL     1      -1.976   2.491   3.460  0.00  0.00    +0.000 A 
ATOM      4  C   UNL     1      -1.845   1.121   3.253  0.00  0.00    +0.000 A 
ATOM      5  C   UNL     1      -1.187   0.661   2.095  0.00  0.00    +0.000 A 
ATOM      6  O   UNL     1      -1.060  -0.534   1.891  0.00  0.00    +0.000 OA
ATOM      7  N   UNL     1      -0.698   1.558   1.213  0.00  0.00    +0.000 N 
ATOM      8  C   UNL     1      -0.827   2.879   1.427  0.00  0.00    +0.000 A 
ATOM      9  O   UNL     1      -0.369   3.658   0.613  0.00  0.00    +0.000 OA
ATOM     10  C   UNL     1      -0.013   1.086   0.008  0.00  0.00    +0.000 C 
ATOM     11  N   UNL     1      -2.449   0.500   4.332  0.00  0.00    +0.000 NA
ATOM     12  C   UNL     1      -2.917   1.492   5.143  0.00  0.00    +0.000 A 
ATOM     13  N   UNL     1      -2.627   2.665   4.609  0.00  0.00    +0.000 NA
ENDROOT
BRANCH  12  14
ATOM     14  N   UNL     1      -3.579   1.303   6.317  0.00  0.00    +0.000 NA
ATOM     15  N   UNL     1      -3.977   2.319   7.004  0.00  0.00    +0.000 NA
BRANCH  15  16
ATOM     16  N   UNL     1      -4.605   2.140   8.117  0.00  0.00    +0.000 N 
ATOM     17  C   UNL     1      -4.865   0.782   8.600  0.00  0.00    +0.000 C 
BRANCH  16  18
ATOM     18  N   UNL     1      -5.026   3.217   8.844  0.00  0.00    +0.000 NA
ATOM     19  H   UNL     1      -5.622   3.759   8.202  0.00  0.00    +0.000 HD
ATOM     20  H   UNL     1      -4.177   3.773   9.019  0.00  0.00    +0.000 HD
ENDBRANCH  16  18
ENDBRANCH  15  16
ENDBRANCH  12  14
TORSDOF 3
ENDMDL
MODEL      553
REMARK  Name = ZINC01603645
REMARK  5 active torsions:
REMARK  status: ('A' for Active; 'I' for Inactive)
REMARK    1  A    between atoms: C_1  and  C_2
REMARK    2  A    between atoms: C_1  and  S_4
REMARK    3  A    between atoms: S_4  and  C_5
REMARK    4  A    between atoms: C_8  and  N_12
REMARK    5  A    between atoms: C_9  and  N_11
REMARK                            x       y       z     vdW  Elec       q    Type
REMARK                         _______ _______ _______ _____ _____    ______ ____
ROOT
ATOM      1  C   UNL     1       0.174   0.961   2.735  0.00  0.00    +0.000 A 
ATOM      2  N   UNL     1       1.219   0.236   2.364  0.00  0.00    +0.000 N 
ATOM      3  C   UNL     1       2.026  -0.312   3.270  0.00  0.00    +0.000 A 
ATOM      4  C   UNL     1       1.752  -0.122   4.625  0.00  0.00    +0.000 A 
ATOM      5  C   UNL     1       0.639   0.643   4.975  0.00  0.00    +0.000 A 
ATOM      6  N   UNL     1      -0.118   1.163   4.011  0.00  0.00    +0.000 NA
ATOM      7  N   UNL     1       3.123  -1.067   2.872  0.00  0.00    +0.000 N 
ATOM      8  H   UNL     1       1.409   0.094   1.362  0.00  0.00    +0.000 HD
ATOM      9  H   UNL     1       3.311  -1.202   1.868  0.00  0.00    +0.000 HD
ATOM     10  H   UNL     1       3.744  -1.489   3.576  0.00  0.00    +0.000 HD
ENDROOT
BRANCH   5  11
ATOM     11  N   UNL     1       0.325   0.860   6.311  0.00  0.00    +0.000 N 
ATOM     12  H   UNL     1       0.919   0.452   7.047  0.00  0.00    +0.000 HD
ATOM     13  H   UNL     1      -0.497   1.426   6.566  0.00  0.00    +0.000 HD
ENDBRANCH   5  11
BRANCH   4  14
ATOM     14  N   UNL     1       2.578  -0.689   5.614  0.00  0.00    +0.000 N 
ATOM     15  H   UNL     1       3.394  -1.251   5.331  0.00  0.00    +0.000 HD
ATOM     16  H   UNL     1       2.370  -0.545   6.613  0.00  0.00    +0.000 HD
ENDBRANCH   4  14
BRANCH   1  17
ATOM     17  S   UNL     1      -0.860   1.669   1.497  0.00  0.00    +0.000 S 
BRANCH  17  18
ATOM     18  C   UNL     1      -0.013   1.086   0.008  0.00  0.00    +0.000 C 
BRANCH  18  19
ATOM     19  C   UNL     1      -0.742   1.585  -1.213  0.00  0.00    +0.000 C 
ATOM     20  O   UNL     1      -1.732   2.266  -1.089  0.00  0.00    +0.000 OA
ATOM     21  O   UNL     1      -0.290   1.274  -2.438  0.00  0.00    +0.000 OA
ENDBRANCH  18  19
ENDBRANCH  17  18
ENDBRANCH   1  17
TORSDOF 5
ENDMDL
MODEL      554
REMARK  Name = ZINC05425294
REMARK  3 active torsions:
REMARK  status: ('A' for Active; 'I' for Inactive)
REMARK    1  A    between atoms: C_2  and  N_18
REMARK    2  A    between atoms: N_3  and  O_14
REMARK    3  A    between atoms: O_14  and  S_15
REMARK                            x       y       z     vdW  Elec       q    Type
REMARK                         _______ _______ _______ _____ _____    ______ ____
ROOT
ATOM      1  C   UNL     1       3.072   3.435  -0.856  0.00  0.00    +0.000 A 
ATOM      2  C   UNL     1       3.454   4.324  -1.812  0.00  0.00    +0.000 A 
ATOM      3  N   UNL     1       2.567   4.661  -2.805  0.00  0.00    +0.000 N 
ATOM      4  C   UNL     1       1.319   4.111  -2.830  0.00  0.00    +0.000 A 
ATOM      5  N   UNL     1       0.936   3.249  -1.917  0.00  0.00    +0.000 NA
ATOM      6  C   UNL     1       1.766   2.886  -0.916  0.00  0.00    +0.000 A 
ATOM      7  N   UNL     1       1.366   2.019  -0.000  0.00  0.00    +0.000 N 
ATOM      8  C   UNL     1       2.209   1.717   1.164  0.00  0.00    +0.000 C 
ATOM      9  C   UNL     1       1.386   1.931   2.438  0.00  0.00    +0.000 C 
ATOM     10  C   UNL     1       0.104   1.099   2.358  0.00  0.00    +0.000 C 
ATOM     11  C   UNL     1      -0.731   1.559   1.161  0.00  0.00    +0.000 C 
ATOM     12  C   UNL     1       0.069   1.341  -0.128  0.00  0.00    +0.000 C 
ATOM     13  N   UNL     1       0.450   4.462  -3.830  0.00  0.00    +0.000 N 
ATOM     14  H   UNL     1       0.734   5.133  -4.558  0.00  0.00    +0.000 HD
ATOM     15  H   UNL     1      -0.494   4.050  -3.853  0.00  0.00    +0.000 HD
ENDROOT
BRANCH   2  16
ATOM     16  N   UNL     1       4.716   4.878  -1.786  0.00  0.00    +0.000 N 
ATOM     17  H   UNL     1       5.373   4.617  -1.037  0.00  0.00    +0.000 HD
ATOM     18  H   UNL     1       5.002   5.550  -2.512  0.00  0.00    +0.000 HD
ENDBRANCH   2  16
BRANCH   3  19
ATOM     19  O   UNL     1       2.949   5.585  -3.808  0.00  0.00    +0.000 OA
BRANCH  19  20
ATOM     20  S   UNL     1       3.593   4.942  -5.029  0.00  0.00    +0.000 S 
ATOM     21  O   UNL     1       4.098   6.003  -5.827  0.00  0.00    +0.000 OA
ATOM     22  O   UNL     1       4.420   3.892  -4.546  0.00  0.00    +0.000 OA
ATOM     23  O   UNL     1       2.480   4.285  -5.832  0.00  0.00    +0.000 OA
ENDBRANCH  19  20
ENDBRANCH   3  19
TORSDOF 3
ENDMDL
MODEL      555
REMARK  Name = ZINC03870471
REMARK  5 active torsions:
REMARK  status: ('A' for Active; 'I' for Inactive)
REMARK    1  A    between atoms: C_2  and  C_12
REMARK    2  A    between atoms: C_13  and  O_19
REMARK    3  A    between atoms: C_14  and  O_18
REMARK    4  A    between atoms: C_15  and  C_16
REMARK    5  A    between atoms: C_16  and  O_17
REMARK                            x       y       z     vdW  Elec       q    Type
REMARK                         _______ _______ _______ _____ _____    ______ ____
ROOT
ATOM      1  C   UNK     1      -0.868  -0.815   0.643  0.00  0.00    +0.000 A 
ATOM      2  C   UNK     1       0.002  -0.004   0.002  0.00  0.00    +0.000 A 
ATOM      3  C   UNK     1       0.925  -0.815  -0.678  0.00  0.00    +0.000 A 
ATOM      4  C   UNK     1       0.578  -2.135  -0.412  0.00  0.00    +0.000 A 
ATOM      5  N   UNK     1      -0.532  -2.111   0.401  0.00  0.00    +0.000 N 
ATOM      6  C   UNK     1       1.361  -3.169  -0.982  0.00  0.00    +0.000 A 
ATOM      7  O   UNK     1       1.082  -4.340  -0.772  0.00  0.00    +0.000 OA
ATOM      8  N   UNK     1       2.403  -2.852  -1.764  0.00  0.00    +0.000 NA
ATOM      9  C   UNK     1       2.726  -1.599  -2.008  0.00  0.00    +0.000 A 
ATOM     10  N   UNK     1       2.017  -0.562  -1.487  0.00  0.00    +0.000 N 
ATOM     11  N   UNK     1       3.805  -1.333  -2.808  0.00  0.00    +0.000 N 
ATOM     12  H   UNK     1      -1.026  -2.938   0.767  0.00  0.00    +0.000 HD
ATOM     13  H   UNK     1       2.292   0.408  -1.695  0.00  0.00    +0.000 HD
ATOM     14  H   UNK     1       4.359  -2.100  -3.214  0.00  0.00    +0.000 HD
ATOM     15  H   UNK     1       4.064  -0.355  -3.003  0.00  0.00    +0.000 HD
ENDROOT
BRANCH   2  16
ATOM     16  C   UNK     1      -0.018   1.503   0.010  0.00  0.00    +0.000 C 
ATOM     17  C   UNK     1      -0.812   2.038  -1.207  0.00  0.00    +0.000 C 
ATOM     18  C   UNK     1      -1.252   3.439  -0.702  0.00  0.00    +0.000 C 
ATOM     19  C   UNK     1      -1.514   3.202   0.800  0.00  0.00    +0.000 C 
ATOM     20  N   UNK     1      -0.754   2.004   1.186  0.00  0.00    +0.000 N 
ATOM     21  H   UNK     1      -0.087   2.245   1.933  0.00  0.00    +0.000 HD
ATOM     22  H   UNK     1      -1.403   1.278   1.522  0.00  0.00    +0.000 HD
BRANCH  18  23
ATOM     23  O   UNK     1      -0.207   4.395  -0.888  0.00  0.00    +0.000 OA
ATOM     24  H   UNK     1       0.015   4.446  -1.851  0.00  0.00    +0.000 HD
ENDBRANCH  18  23
BRANCH  17  25
ATOM     25  O   UNK     1      -1.947   1.214  -1.481  0.00  0.00    +0.000 OA
ATOM     26  H   UNK     1      -2.533   1.202  -0.683  0.00  0.00    +0.000 HD
ENDBRANCH  17  25
BRANCH  19  27
ATOM     27  C   UNK     1      -1.037   4.408   1.612  0.00  0.00    +0.000 C 
BRANCH  27  28
ATOM     28  O   UNK     1      -1.376   4.220   2.987  0.00  0.00    +0.000 OA
ATOM     29  H   UNK     1      -0.937   3.401   3.327  0.00  0.00    +0.000 HD
ENDBRANCH  27  28
ENDBRANCH  19  27
ENDBRANCH   2  16
TORSDOF 5
ENDMDL
MODEL      556
REMARK  Name = ZINC13521783
REMARK  8 active torsions:
REMARK  status: ('A' for Active; 'I' for Inactive)
REMARK    1  A    between atoms: C_3  and  N_21
REMARK    2  A    between atoms: N_7  and  C_10
REMARK    3  A    between atoms: C_10  and  C_19
REMARK    4  A    between atoms: C_11  and  O_18
REMARK    5  A    between atoms: C_12  and  O_17
REMARK    6  A    between atoms: C_13  and  C_15
REMARK    7  A    between atoms: C_15  and  O_16
REMARK    8  A    between atoms: C_19  and  O_20
REMARK                            x       y       z     vdW  Elec       q    Type
REMARK                         _______ _______ _______ _____ _____    ______ ____
ROOT
ATOM      1  C   UNL     1       0.275   2.835  -1.624  0.00  0.00    +0.000 C 
ATOM      2  C   UNL     1      -0.640   1.626  -1.300  0.00  0.00    +0.000 C 
ATOM      3  C   UNL     1      -0.013   1.086   0.008  0.00  0.00    +0.000 C 
ATOM      4  C   UNL     1       1.423   1.645  -0.003  0.00  0.00    +0.000 C 
ATOM      5  O   UNL     1       1.587   2.380  -1.227  0.00  0.00    +0.000 OA
ENDROOT
BRANCH   1  12
ATOM      6  C   UNL     1      -3.425   5.374  -1.526  0.00  0.00    +0.000 A 
ATOM      7  N   UNL     1      -3.406   6.370  -0.658  0.00  0.00    +0.000 NA
ATOM      8  C   UNL     1      -2.351   6.585   0.120  0.00  0.00    +0.000 A 
ATOM      9  C   UNL     1      -1.246   5.724   0.002  0.00  0.00    +0.000 A 
ATOM     10  C   UNL     1      -1.315   4.680  -0.935  0.00  0.00    +0.000 A 
ATOM     11  N   UNL     1      -2.414   4.543  -1.670  0.00  0.00    +0.000 NA
ATOM     12  N   UNL     1      -0.123   4.008  -0.841  0.00  0.00    +0.000 N 
ATOM     13  C   UNL     1       0.621   4.627   0.118  0.00  0.00    +0.000 A 
ATOM     14  N   UNL     1      -0.037   5.638   0.608  0.00  0.00    +0.000 NA
BRANCH   8  15
ATOM     15  N   UNL     1      -2.340   7.631   1.026  0.00  0.00    +0.000 N 
ATOM     16  H   UNL     1      -3.161   8.249   1.095  0.00  0.00    +0.000 HD
ATOM     17  H   UNL     1      -1.519   7.792   1.626  0.00  0.00    +0.000 HD
ENDBRANCH   8  15
ENDBRANCH   1  12
BRANCH   2  18
ATOM     18  O   UNL     1      -0.578   0.647  -2.338  0.00  0.00    +0.000 OA
ATOM     19  H   UNL     1       0.358   0.338  -2.431  0.00  0.00    +0.000 HD
ENDBRANCH   2  18
BRANCH   3  20
ATOM     20  O   UNL     1      -0.729   1.569   1.146  0.00  0.00    +0.000 OA
ATOM     21  H   UNL     1      -1.671   1.272   1.084  0.00  0.00    +0.000 HD
ENDBRANCH   3  20
BRANCH   4  22
ATOM     22  C   UNL     1       2.430   0.494   0.051  0.00  0.00    +0.000 C 
BRANCH  22  23
ATOM     23  O   UNL     1       3.753   1.023   0.158  0.00  0.00    +0.000 OA
ATOM     24  H   UNL     1       3.827   1.564   0.984  0.00  0.00    +0.000 HD
ENDBRANCH  22  23
ENDBRANCH   4  22
BRANCH   1  25
ATOM     25  C   UNL     1       0.244   3.152  -3.120  0.00  0.00    +0.000 C 
BRANCH  25  26
ATOM     26  O   UNL     1       1.173   4.201  -3.403  0.00  0.00    +0.000 OA
ATOM     27  H   UNL     1       2.085   3.915  -3.146  0.00  0.00    +0.000 HD
ENDBRANCH  25  26
ENDBRANCH   1  25
TORSDOF 8
ENDMDL
MODEL      557
REMARK  Name = ZINC17193086
REMARK  7 active torsions:
REMARK  status: ('A' for Active; 'I' for Inactive)
REMARK    1  A    between atoms: C_3  and  C_15
REMARK    2  A    between atoms: N_5  and  C1*_6
REMARK    3  A    between atoms: C2*_7  and  O2*_14
REMARK    4  A    between atoms: C3*_8  and  O3*_13
REMARK    5  A    between atoms: C4*_9  and  C5*_11
REMARK    6  A    between atoms: C5*_11  and  O5*_12
REMARK    7  A    between atoms: C_17  and  O_20
REMARK                            x       y       z     vdW  Elec       q    Type
REMARK                         _______ _______ _______ _____ _____    ______ ____
ROOT
ATOM      1  C   UNL     1       1.950   2.320   0.979  0.00  0.00    +0.000 A 
ATOM      2  N   UNL     1       3.162   2.615   0.593  0.00  0.00    +0.000 NA
ATOM      3  C   UNL     1       3.381   2.119  -0.633  0.00  0.00    +0.000 A 
ATOM      4  N   UNL     1       2.295   1.493  -1.035  0.00  0.00    +0.000 NA
ATOM      5  N   UNL     1       1.352   1.619  -0.002  0.00  0.00    +0.000 N 
ENDROOT
BRANCH   3   6
ATOM      6  C   UNL     1       4.638   2.248  -1.405  0.00  0.00    +0.000 C 
ATOM      7  C   UNL     1       5.882   1.795  -3.439  0.00  0.00    +0.000 C 
ATOM      8  C   UNL     1       7.133   2.105  -2.613  0.00  0.00    +0.000 C 
ATOM      9  C   UNL     1       6.830   3.306  -1.704  0.00  0.00    +0.000 C 
ATOM     10  N   UNL     1       5.696   2.931  -0.844  0.00  0.00    +0.000 N 
ATOM     11  N   UNL     1       4.630   1.664  -2.608  0.00  0.00    +0.000 NA
ATOM     12  H   UNL     1       5.693   3.174   0.157  0.00  0.00    +0.000 HD
BRANCH   8  13
ATOM     13  O   UNL     1       8.221   2.424  -3.482  0.00  0.00    +0.000 OA
ATOM     14  H   UNL     1       7.983   3.214  -4.030  0.00  0.00    +0.000 HD
ENDBRANCH   8  13
ENDBRANCH   3   6
BRANCH   5  15
ATOM     15  C1* UNL     1      -0.013   1.086   0.008  0.00  0.00    +0.000 C 
ATOM     16  C2* UNL     1      -0.819   1.627  -1.200  0.00  0.00    +0.000 C 
ATOM     17  C3* UNL     1      -2.280   1.509  -0.688  0.00  0.00    +0.000 C 
ATOM     18  C4* UNL     1      -2.141   1.451   0.845  0.00  0.00    +0.000 C 
ATOM     19  O4* UNL     1      -0.742   1.578   1.153  0.00  0.00    +0.000 OA
BRANCH  17  20
ATOM     20  O3* UNL     1      -3.043   2.652  -1.078  0.00  0.00    +0.000 OA
ATOM     21  H3* UNL     1      -3.043   2.719  -2.066  0.00  0.00    +0.000 HD
ENDBRANCH  17  20
BRANCH  16  22
ATOM     22  O2* UNL     1      -0.612   0.815  -2.357  0.00  0.00    +0.000 OA
ATOM     23  H2* UNL     1      -0.901  -0.110  -2.154  0.00  0.00    +0.000 HD
ENDBRANCH  16  22
BRANCH  18  24
ATOM     24  C5* UNL     1      -2.920   2.603   1.483  0.00  0.00    +0.000 C 
BRANCH  24  25
ATOM     25  O5* UNL     1      -2.868   2.483   2.906  0.00  0.00    +0.000 OA
ATOM     26  H5* UNL     1      -1.926   2.517   3.206  0.00  0.00    +0.000 HD
ENDBRANCH  24  25
ENDBRANCH  18  24
ENDBRANCH   5  15
TORSDOF 7
ENDMDL
MODEL      558
REMARK  Name = ZINC12362881
REMARK  4 active torsions:
REMARK  status: ('A' for Active; 'I' for Inactive)
REMARK    1  A    between atoms: C_2  and  N_18
REMARK    2  A    between atoms: C_4  and  C_15
REMARK    3  A    between atoms: C_5  and  C_13
REMARK    4  A    between atoms: C_7  and  N_9
REMARK                            x       y       z     vdW  Elec       q    Type
REMARK                         _______ _______ _______ _____ _____    ______ ____
ROOT
ATOM      1  C   UNL     1      -1.474   3.467   0.033  0.00  0.00    +0.000 C 
ATOM      2  C   UNL     1      -1.306   1.937   0.018  0.00  0.00    +0.000 C 
ATOM      3  C   UNL     1      -2.525   1.361   0.021  0.00  0.00    +0.000 C 
ATOM      4  C   UNL     1      -3.529   2.426   0.102  0.00  0.00    +0.000 C 
ATOM      5  C   UNL     1      -2.799   3.594  -0.679  0.00  0.00    +0.000 C 
ATOM      6  C   UNL     1      -3.803   4.658  -0.604  0.00  0.00    +0.000 C 
ATOM      7  C   UNL     1      -5.021   4.081  -0.604  0.00  0.00    +0.000 C 
ATOM      8  C   UNL     1      -4.851   2.551  -0.609  0.00  0.00    +0.000 C 
ATOM      9  N   UNL     1      -3.545   6.022  -0.544  0.00  0.00    +0.000 NA
ATOM     10  N   UNL     1      -2.784  -0.003  -0.041  0.00  0.00    +0.000 NA
ATOM     11  H   UNL     1      -2.550   6.286  -0.554  0.00  0.00    +0.000 HD
ATOM     12  H   UNL     1      -1.956  -0.614  -0.093  0.00  0.00    +0.000 HD
ENDROOT
BRANCH   7  13
ATOM     13  N   UNL     1      -6.314   4.803  -0.601  0.00  0.00    +0.000 N 
ATOM     14  O   UNL     1      -6.332   6.021  -0.598  0.00  0.00    +0.000 OA
ATOM     15  O   UNL     1      -7.360   4.178  -0.602  0.00  0.00    +0.000 OA
ENDBRANCH   7  13
BRANCH   2  16
ATOM     16  N   UNL     1      -0.014   1.214   0.007  0.00  0.00    +0.000 N 
ATOM     17  O   UNL     1       0.002  -0.004   0.001  0.00  0.00    +0.000 OA
ATOM     18  O   UNL     1       1.032   1.837   0.001  0.00  0.00    +0.000 OA
ENDBRANCH   2  16
BRANCH   5  19
ATOM     19  C   UNL     1      -2.630   3.184  -2.082  0.00  0.00    +0.000 C 
ATOM     20  N   UNL     1      -2.500   2.868  -3.166  0.00  0.00    +0.000 NA
ENDBRANCH   5  19
BRANCH   4  21
ATOM     21  C   UNL     1      -3.700   2.830   1.507  0.00  0.00    +0.000 C 
ATOM     22  N   UNL     1      -3.832   3.142   2.591  0.00  0.00    +0.000 NA
ENDBRANCH   4  21
TORSDOF 4
ENDMDL
MODEL      559
REMARK  Name = ZINC05012963
REMARK  2 active torsions:
REMARK  status: ('A' for Active; 'I' for Inactive)
REMARK    1  A    between atoms: N_10  and  C_11
REMARK    2  A    between atoms: CA_13  and  C_15
REMARK                            x       y       z     vdW  Elec       q    Type
REMARK                         _______ _______ _______ _____ _____    ______ ____
ROOT
ATOM      1  C   UNL     1      -0.888  -0.199   5.367  0.00  0.00    +0.000 A 
ATOM      2  N   UNL     1      -1.008   0.252   4.105  0.00  0.00    +0.000 NA
ATOM      3  C   UNL     1      -0.106   1.142   3.592  0.00  0.00    +0.000 A 
ATOM      4  C   UNL     1       0.944   1.572   4.399  0.00  0.00    +0.000 A 
ATOM      5  C   UNL     1       1.023   1.041   5.761  0.00  0.00    +0.000 A 
ATOM      6  O   UNL     1       1.919   1.384   6.516  0.00  0.00    +0.000 OA
ATOM      7  N   UNL     1       0.074   0.174   6.165  0.00  0.00    +0.000 N 
ATOM      8  N   UNL     1       1.685   2.438   3.671  0.00  0.00    +0.000 NA
ATOM      9  C   UNL     1       1.161   2.556   2.484  0.00  0.00    +0.000 A 
ATOM     10  N   UNL     1       0.052   1.767   2.394  0.00  0.00    +0.000 N 
ATOM     11  H   UNL     1       0.109  -0.202   7.123  0.00  0.00    +0.000 HD
ENDROOT
BRANCH  10  12
ATOM     12  C   UNL     1      -0.815   1.624   1.222  0.00  0.00    +0.000 C 
ATOM     13  C   UNL     1      -0.013   1.086   0.008  0.00  0.00    +0.000 C 
ATOM     14  CA  UNL     1      -0.837   1.636  -1.182  0.00  0.00    +0.000 C 
ATOM     15  C   UNL     1      -1.304   3.004   0.731  0.00  0.00    +0.000 C 
ATOM     16  N   UNL     1      -1.286   2.969  -0.740  0.00  0.00    +0.000 N 
ATOM     17  H1  UNL     1      -2.233   3.152  -1.099  0.00  0.00    +0.000 HD
ATOM     18  H2  UNL     1      -0.636   3.687  -1.093  0.00  0.00    +0.000 HD
BRANCH  14  19
ATOM     19  C   UNL     1       0.028   1.751  -2.411  0.00  0.00    +0.000 C 
ATOM     20  O   UNL     1       0.487   2.822  -2.729  0.00  0.00    +0.000 OA
ATOM     21  OXT UNL     1       0.288   0.662  -3.152  0.00  0.00    +0.000 OA
ENDBRANCH  14  19
ENDBRANCH  10  12
TORSDOF 2
ENDMDL
MODEL      560
REMARK  Name = ZINC08418142
REMARK  4 active torsions:
REMARK  status: ('A' for Active; 'I' for Inactive)
REMARK    1  A    between atoms: C_3  and  N_14
REMARK    2  A    between atoms: C_4  and  N_11
REMARK    3  A    between atoms: C_6  and  S_7
REMARK    4  A    between atoms: S_7  and  N_10
REMARK                            x       y       z     vdW  Elec       q    Type
REMARK                         _______ _______ _______ _____ _____    ______ ____
ROOT
ATOM      1  C   UNL     1       0.526  -2.068  -1.100  0.00  0.00    +0.000 A 
ATOM      2  C   UNL     1       0.511  -0.687  -1.095  0.00  0.00    +0.000 A 
ATOM      3  C   UNL     1       0.004  -0.004   0.003  0.00  0.00    +0.000 A 
ATOM      4  C   UNL     1      -0.481  -0.713   1.095  0.00  0.00    +0.000 A 
ATOM      5  C   UNL     1      -0.468  -2.094   1.081  0.00  0.00    +0.000 A 
ATOM      6  C   UNL     1       0.038  -2.771  -0.014  0.00  0.00    +0.000 A 
ENDROOT
BRANCH   3   7
ATOM      7  N   UNL     1      -0.013   1.393   0.011  0.00  0.00    +0.000 N 
ATOM      8  C   UNL     1       1.344   1.937  -0.131  0.00  0.00    +0.000 C 
ATOM      9  C   UNL     1       1.291   3.464  -0.037  0.00  0.00    +0.000 C 
ATOM     10  C   UNL     1      -0.953   3.441  -0.945  0.00  0.00    +0.000 C 
ATOM     11  C   UNL     1      -0.900   1.915  -1.038  0.00  0.00    +0.000 C 
ATOM     12  N   UNL     1       0.408   3.992  -1.094  0.00  0.00    +0.000 N 
ATOM     13  H   UNL     1       0.369   5.019  -1.025  0.00  0.00    +0.000 HD
ATOM     14  H   UNL     1       0.782   3.729  -2.017  0.00  0.00    +0.000 HD
ENDBRANCH   3   7
BRANCH   6  15
ATOM     15  S   UNL     1       0.059  -4.533  -0.025  0.00  0.00    +0.000 S 
ATOM     16  O   UNL     1      -0.954  -4.957   0.877  0.00  0.00    +0.000 OA
ATOM     17  O   UNL     1       0.079  -4.930  -1.389  0.00  0.00    +0.000 OA
BRANCH  15  18
ATOM     18  N   UNL     1       1.504  -5.009   0.628  0.00  0.00    +0.000 NA
ATOM     19  H   UNL     1       1.696  -6.010   0.780  0.00  0.00    +0.000 HD
ATOM     20  H   UNL     1       2.212  -4.305   0.882  0.00  0.00    +0.000 HD
ENDBRANCH  15  18
ENDBRANCH   6  15
BRANCH   4  21
ATOM     21  N   UNL     1      -1.016   0.011   2.270  0.00  0.00    +0.000 N 
ATOM     22  O   UNL     1      -1.355  -0.607   3.263  0.00  0.00    +0.000 OA
ATOM     23  O   UNL     1      -1.119   1.224   2.243  0.00  0.00    +0.000 OA
ENDBRANCH   4  21
TORSDOF 4
ENDMDL
MODEL      561
REMARK  Name = ZINC32062158
REMARK  5 active torsions:
REMARK  status: ('A' for Active; 'I' for Inactive)
REMARK    1  A    between atoms: C_1  and  N_2
REMARK    2  A    between atoms: C_3  and  N_16
REMARK    3  A    between atoms: C_6  and  C_7
REMARK    4  A    between atoms: C_10  and  S_12
REMARK    5  A    between atoms: S_12  and  C_13
REMARK                            x       y       z     vdW  Elec       q    Type
REMARK                         _______ _______ _______ _____ _____    ______ ____
ROOT
ATOM      1  C   UNL     1      -2.718   2.907   1.734  0.00  0.00    +0.000 A 
ATOM      2  N   UNL     1      -3.799   3.641   1.496  0.00  0.00    +0.000 NA
ATOM      3  N   UNL     1      -4.485   4.096   2.454  0.00  0.00    +0.000 NA
ATOM      4  C   UNL     1      -4.154   3.873   3.720  0.00  0.00    +0.000 A 
ATOM      5  S   UNL     1      -2.720   2.909   3.523  0.00  0.00    +0.000 S 
ENDROOT
BRANCH   1  11
ATOM      6  C   UNL     1      -2.978   3.081  -1.282  0.00  0.00    +0.000 C 
ATOM      7  N   UNL     1      -1.914   2.366  -0.572  0.00  0.00    +0.000 N 
ATOM      8  C   UNL     1      -0.809   1.622  -1.198  0.00  0.00    +0.000 C 
ATOM      9  C   UNL     1      -0.013   1.086   0.008  0.00  0.00    +0.000 C 
ATOM     10  N   UNL     1      -0.750   1.584   1.177  0.00  0.00    +0.000 NA
ATOM     11  C   UNL     1      -1.779   2.275   0.791  0.00  0.00    +0.000 C 
BRANCH   8  12
ATOM     12  N   UNL     1       0.021   2.515  -2.009  0.00  0.00    +0.000 N 
ATOM     13  O   UNL     1       0.868   2.053  -2.753  0.00  0.00    +0.000 OA
ATOM     14  O   UNL     1      -0.135   3.721  -1.940  0.00  0.00    +0.000 OA
ENDBRANCH   8  12
ENDBRANCH   1  11
BRANCH   4  15
ATOM     15  S   UNL     1      -4.951   4.409   5.197  0.00  0.00    +0.000 S 
BRANCH  15  16
ATOM     16  C   UNL     1      -6.296   5.314   4.508  0.00  0.00    +0.000 C 
ATOM     17  O   UNL     1      -6.419   5.397   3.301  0.00  0.00    +0.000 OA
ATOM     18  N   UNL     1      -7.189   5.916   5.319  0.00  0.00    +0.000 N 
ATOM     19  H   UNL     1      -7.085   5.846   6.342  0.00  0.00    +0.000 HD
ATOM     20  H   UNL     1      -7.976   6.445   4.917  0.00  0.00    +0.000 HD
ENDBRANCH  15  16
ENDBRANCH   4  15
TORSDOF 4
ENDMDL
MODEL      562
REMARK  Name = ZINC06525051
REMARK  4 active torsions:
REMARK  status: ('A' for Active; 'I' for Inactive)
REMARK    1  A    between atoms: C_3  and  C_20
REMARK    2  A    between atoms: C_4  and  O_19
REMARK    3  A    between atoms: C_6  and  N_7
REMARK    4  A    between atoms: N_8  and  C_9
REMARK                            x       y       z     vdW  Elec       q    Type
REMARK                         _______ _______ _______ _____ _____    ______ ____
ROOT
ATOM      1  N   UNL     1       3.767   2.687   2.348  0.00  0.00    +0.000 NA
ATOM      2  N   UNL     1       4.893   3.207   2.333  0.00  0.00    +0.000 NA
ENDROOT
BRANCH   2   3
ATOM      3  C   UNL     1       5.532   3.491   3.512  0.00  0.00    +0.000 C 
ATOM      4  N   UNL     1       5.017   3.248   4.698  0.00  0.00    +0.000 NA
ATOM      5  C   UNL     1       6.091   3.508   5.649  0.00  0.00    +0.000 C 
ATOM      6  C   UNL     1       5.605   4.287   6.849  0.00  0.00    +0.000 C 
ATOM      7  N   UNL     1       6.445   5.225   7.272  0.00  0.00    +0.000 NA
ATOM      8  C   UNL     1       7.625   5.429   6.700  0.00  0.00    +0.000 C 
ATOM      9  N   UNL     1       8.001   4.967   5.522  0.00  0.00    +0.000 NA
ATOM     10  C   UNL     1       7.126   4.259   4.808  0.00  0.00    +0.000 C 
ATOM     11  N   UNL     1       6.758   4.058   3.582  0.00  0.00    +0.000 NA
ATOM     12  N   UNL     1       4.417   4.049   7.441  0.00  0.00    +0.000 N 
ATOM     13  H   UNL     1       3.825   3.302   7.050  0.00  0.00    +0.000 HD
ATOM     14  H   UNL     1       4.104   4.592   8.258  0.00  0.00    +0.000 HD
ENDBRANCH   2   3
BRANCH   1  20
ATOM     15  C   UNL     1       3.749   2.700  -0.047  0.00  0.00    +0.000 A 
ATOM     16  C   UNL     1       3.118   2.419  -1.224  0.00  0.00    +0.000 A 
ATOM     17  C   UNL     1       1.848   1.833  -1.219  0.00  0.00    +0.000 A 
ATOM     18  C   UNL     1       1.221   1.531  -0.001  0.00  0.00    +0.000 A 
ATOM     19  C   UNL     1       1.861   1.821   1.191  0.00  0.00    +0.000 A 
ATOM     20  C   UNL     1       3.131   2.403   1.174  0.00  0.00    +0.000 A 
BRANCH  17  21
ATOM     21  C   UNL     1       1.170   1.531  -2.494  0.00  0.00    +0.000 C 
ATOM     22  O   UNL     1       0.067   1.022  -2.489  0.00  0.00    +0.000 OA
ATOM     23  O   UNL     1       1.774   1.821  -3.663  0.00  0.00    +0.000 OA
ENDBRANCH  17  21
BRANCH  18  24
ATOM     24  O   UNL     1      -0.011   0.963   0.007  0.00  0.00    +0.000 OA
ATOM     25  H   UNL     1       0.087   0.137  -0.530  0.00  0.00    +0.000 HD
ENDBRANCH  18  24
ENDBRANCH   1  20
TORSDOF 4
ENDMDL
MODEL      563
REMARK  Name = ZINC01187537
REMARK  4 active torsions:
REMARK  status: ('A' for Active; 'I' for Inactive)
REMARK    1  A    between atoms: C_3  and  C_10
REMARK    2  A    between atoms: C_4  and  C_6
REMARK    3  A    between atoms: N_8  and  O_9
REMARK    4  A    between atoms: N_12  and  O_13
REMARK                            x       y       z     vdW  Elec       q    Type
REMARK                         _______ _______ _______ _____ _____    ______ ____
ROOT
ATOM      1  C   UNL     1      -0.459  -4.251  -0.018  0.00  0.00    +0.000 A 
ATOM      2  N   UNL     1      -0.028  -2.976  -0.020  0.00  0.00    +0.000 NA
ATOM      3  C   UNL     1      -1.136  -2.167   0.001  0.00  0.00    +0.000 A 
ATOM      4  C   UNL     1      -2.234  -3.016   0.007  0.00  0.00    +0.000 A 
ATOM      5  N   UNL     1      -1.764  -4.274  -0.005  0.00  0.00    +0.000 NA
ENDROOT
BRANCH   4   6
ATOM      6  C   UNL     1      -3.656  -2.611   0.023  0.00  0.00    +0.000 C 
ATOM      7  O   UNL     1      -3.952  -1.432   0.032  0.00  0.00    +0.000 OA
ATOM      8  N   UNL     1      -4.624  -3.549   0.027  0.00  0.00    +0.000 N 
ATOM      9  H   UNL     1      -4.373  -4.548   0.019  0.00  0.00    +0.000 HD
BRANCH   8  10
ATOM     10  O   UNL     1      -5.986  -3.161   0.042  0.00  0.00    +0.000 OA
ATOM     11  H   UNL     1      -6.096  -2.578  -0.750  0.00  0.00    +0.000 HD
ENDBRANCH   8  10
ENDBRANCH   4   6
BRANCH   3  12
ATOM     12  C   UNL     1      -1.156  -0.694   0.009  0.00  0.00    +0.000 C 
ATOM     13  O   UNL     1      -2.217  -0.100   0.023  0.00  0.00    +0.000 OA
ATOM     14  N   UNL     1       0.002  -0.004   0.002  0.00  0.00    +0.000 N 
ATOM     15  H   UNL     1       0.901  -0.507  -0.009  0.00  0.00    +0.000 HD
BRANCH  14  16
ATOM     16  O   UNL     1      -0.017   1.412   0.010  0.00  0.00    +0.000 OA
ATOM     17  H   UNL     1      -0.541   1.658   0.813  0.00  0.00    +0.000 HD
ENDBRANCH  14  16
ENDBRANCH   3  12
TORSDOF 4
ENDMDL
MODEL      564
REMARK  Name = ZINC21876860
REMARK  3 active torsions:
REMARK  status: ('A' for Active; 'I' for Inactive)
REMARK    1  A    between atoms: C_3  and  C_7
REMARK    2  A    between atoms: N_9  and  N_10
REMARK    3  A    between atoms: C_11  and  C_13
REMARK                            x       y       z     vdW  Elec       q    Type
REMARK                         _______ _______ _______ _____ _____    ______ ____
ROOT
ATOM      1  N   UNL     1       3.427   6.120   0.002  0.00  0.00    +0.000 N 
ATOM      2  C   UNL     1       3.347   7.465   0.010  0.00  0.00    +0.000 C 
ATOM      3  O   UNL     1       2.260   8.009   0.022  0.00  0.00    +0.000 OA
ATOM      4  H   UNL     1       4.348   5.659  -0.009  0.00  0.00    +0.000 HD
ENDROOT
BRANCH   2   5
ATOM      5  C   UNL     1       4.582   8.279   0.003  0.00  0.00    +0.000 A 
ATOM      6  C   UNL     1       4.495   9.692   0.011  0.00  0.00    +0.000 A 
ATOM      7  C   UNL     1       5.654  10.409   0.004  0.00  0.00    +0.000 A 
ATOM      8  C   UNL     1       6.874   9.696  -0.010  0.00  0.00    +0.000 A 
ATOM      9  O   UNL     1       7.936  10.296  -0.016  0.00  0.00    +0.000 OA
ATOM     10  N   UNL     1       6.856   8.350  -0.017  0.00  0.00    +0.000 NA
ATOM     11  N   UNL     1       5.755   7.689  -0.005  0.00  0.00    +0.000 NA
ENDBRANCH   2   5
BRANCH   1  14
ATOM     12  C   UNL     1       2.337   4.003   0.001  0.00  0.00    +0.000 C 
ATOM     13  O   UNL     1       3.424   3.459  -0.011  0.00  0.00    +0.000 OA
ATOM     14  N   UNL     1       2.257   5.348   0.009  0.00  0.00    +0.000 N 
ATOM     15  H   UNL     1       1.336   5.810   0.019  0.00  0.00    +0.000 HD
BRANCH  12  18
ATOM     16  C   UNL     1      -0.013   1.076   0.008  0.00  0.00    +0.000 A 
ATOM     17  C   UNL     1       1.172   1.791   0.001  0.00  0.00    +0.000 A 
ATOM     18  C   UNL     1       1.103   3.189   0.008  0.00  0.00    +0.000 A 
ATOM     19  C   UNL     1      -0.151   3.802   0.023  0.00  0.00    +0.000 A 
ATOM     20  N   UNL     1      -1.250   3.077   0.030  0.00  0.00    +0.000 NA
ATOM     21  C   UNL     1      -1.216   1.758   0.017  0.00  0.00    +0.000 A 
ENDBRANCH  12  18
ENDBRANCH   1  14
TORSDOF 3
ENDMDL
MODEL      565
REMARK  Name = ZINC03978077
REMARK  6 active torsions:
REMARK  status: ('A' for Active; 'I' for Inactive)
REMARK    1  A    between atoms: N_7  and  C_8
REMARK    2  A    between atoms: C_8  and  C_9
REMARK    3  A    between atoms: C_10  and  O_17
REMARK    4  A    between atoms: C_11  and  O_16
REMARK    5  A    between atoms: C_12  and  C_14
REMARK    6  A    between atoms: C_14  and  O_15
REMARK                            x       y       z     vdW  Elec       q    Type
REMARK                         _______ _______ _______ _____ _____    ______ ____
ROOT
ATOM      1  C   UNL     1      -1.859  -0.224   2.179  0.00  0.00    +0.000 C 
ATOM      2  C   UNL     1      -0.881   0.231   3.292  0.00  0.00    +0.000 C 
ATOM      3  C   UNL     1       0.073   1.174   2.519  0.00  0.00    +0.000 C 
ATOM      4  C   UNL     1      -0.729   1.579   1.267  0.00  0.00    +0.000 C 
ATOM      5  O   UNL     1      -2.023   0.962   1.366  0.00  0.00    +0.000 OA
ENDROOT
BRANCH   2   6
ATOM      6  O   UNL     1      -0.169  -0.884   3.832  0.00  0.00    +0.000 OA
ATOM      7  H   UNL     1       0.338  -1.323   3.104  0.00  0.00    +0.000 HD
ENDBRANCH   2   6
BRANCH   3   8
ATOM      8  O   UNL     1       0.386   2.324   3.307  0.00  0.00    +0.000 OA
ATOM      9  H   UNL     1       0.819   2.032   4.147  0.00  0.00    +0.000 HD
ENDBRANCH   3   8
BRANCH   1  10
ATOM     10  C   UNL     1      -3.199  -0.652   2.781  0.00  0.00    +0.000 C 
BRANCH  10  17
ATOM     11  C   UNL     1      -4.893  -0.370   1.045  0.00  0.00    +0.000 A 
ATOM     12  N   UNL     1      -5.658  -0.853   0.099  0.00  0.00    +0.000 NA
ATOM     13  C   UNL     1      -5.630  -2.160  -0.197  0.00  0.00    +0.000 A 
ATOM     14  N   UNL     1      -4.823  -2.980   0.463  0.00  0.00    +0.000 NA
ATOM     15  C   UNL     1      -4.032  -2.505   1.428  0.00  0.00    +0.000 A 
ATOM     16  O   UNL     1      -3.289  -3.255   2.038  0.00  0.00    +0.000 OA
ATOM     17  N   UNL     1      -4.061  -1.189   1.725  0.00  0.00    +0.000 N 
ATOM     18  N   UNL     1      -6.441  -2.653  -1.188  0.00  0.00    +0.000 N 
ATOM     19  H   UNL     1      -7.070  -2.021  -1.704  0.00  0.00    +0.000 HD
ATOM     20  H   UNL     1      -6.420  -3.657  -1.417  0.00  0.00    +0.000 HD
ENDBRANCH  10  17
ENDBRANCH   1  10
BRANCH   4  21
ATOM     21  C   UNL     1      -0.013   1.086   0.008  0.00  0.00    +0.000 C 
BRANCH  21  22
ATOM     22  O   UNL     1      -0.704   1.559  -1.150  0.00  0.00    +0.000 OA
ATOM     23  H   UNL     1      -0.718   2.549  -1.145  0.00  0.00    +0.000 HD
ENDBRANCH  21  22
ENDBRANCH   4  21
TORSDOF 6
ENDMDL
MODEL      566
REMARK  Name = ZINC31946909
REMARK  1 active torsions:
REMARK  status: ('A' for Active; 'I' for Inactive)
REMARK    1  A    between atoms: N_2  and  C_3
REMARK                            x       y       z     vdW  Elec       q    Type
REMARK                         _______ _______ _______ _____ _____    ______ ____
ROOT
ATOM      1  C   UNL     1      -0.040   0.065   0.026  0.00  0.00    +0.000 C 
ATOM      2  N   UNL     1      -0.045   1.375  -0.049  0.00  0.00    +0.000 NA
ATOM      3  N   UNL     1      -1.210  -0.613   0.163  0.00  0.00    +0.000 N 
ATOM      4  C   UNL     1      -2.135  -0.526  -0.772  0.00  0.00    +0.000 C 
ATOM      5  N   UNL     1      -1.952   0.308  -1.840  0.00  0.00    +0.000 N 
ATOM      6  N   UNL     1      -3.278  -1.270  -0.674  0.00  0.00    +0.000 N 
ATOM      7  H   UNL     1       0.842   1.888  -0.153  0.00  0.00    +0.000 HD
ATOM      8  H   UNL     1      -1.374  -1.194   0.998  0.00  0.00    +0.000 HD
ATOM      9  H   UNL     1      -1.091   0.869  -1.914  0.00  0.00    +0.000 HD
ATOM     10  H   UNL     1      -2.674   0.376  -2.571  0.00  0.00    +0.000 HD
ATOM     11  H   UNL     1      -3.417  -1.898   0.130  0.00  0.00    +0.000 HD
ATOM     12  H   UNL     1      -4.001  -1.202  -1.405  0.00  0.00    +0.000 HD
ENDROOT
BRANCH   1  14
ATOM     13  C   UNL     1       1.137  -1.933  -0.065  0.00  0.00    +0.000 C 
ATOM     14  N   UNL     1       1.138  -0.617  -0.033  0.00  0.00    +0.000 NA
ATOM     15  N   UNL     1       0.051  -2.757  -0.146  0.00  0.00    +0.000 NA
ATOM     16  N   UNL     1       0.494  -3.968  -0.153  0.00  0.00    +0.000 NA
ATOM     17  N   UNL     1       1.776  -3.971  -0.074  0.00  0.00    +0.000 NA
ATOM     18  N   UNL     1       2.221  -2.763  -0.017  0.00  0.00    +0.000 NA
ENDBRANCH   1  14
TORSDOF 1
ENDMDL
MODEL      567
REMARK  Name = ZINC01669756
REMARK  4 active torsions:
REMARK  status: ('A' for Active; 'I' for Inactive)
REMARK    1  A    between atoms: C_3  and  N_19
REMARK    2  A    between atoms: C_6  and  C_7
REMARK    3  A    between atoms: N_9  and  C_10
REMARK    4  A    between atoms: C_13  and  S_16
REMARK                            x       y       z     vdW  Elec       q    Type
REMARK                         _______ _______ _______ _____ _____    ______ ____
ROOT
ATOM      1  C   UNL     1       0.162   0.020  -0.175  0.00  0.00    +0.000 C 
ATOM      2  O   UNL     1       1.268  -0.413  -0.438  0.00  0.00    +0.000 OA
ATOM      3  N   UNL     1      -0.016   1.344   0.009  0.00  0.00    +0.000 N 
ATOM      4  H   UNL     1      -0.964   1.720   0.151  0.00  0.00    +0.000 HD
ENDROOT
BRANCH   1  10
ATOM      5  C   UNL     1      -2.253  -0.405   0.250  0.00  0.00    +0.000 A 
ATOM      6  C   UNL     1      -3.321  -1.268   0.354  0.00  0.00    +0.000 A 
ATOM      7  C   UNL     1      -3.134  -2.634   0.164  0.00  0.00    +0.000 A 
ATOM      8  C   UNL     1      -1.870  -3.132  -0.138  0.00  0.00    +0.000 A 
ATOM      9  C   UNL     1      -0.799  -2.274  -0.248  0.00  0.00    +0.000 A 
ATOM     10  C   UNL     1      -0.983  -0.902  -0.058  0.00  0.00    +0.000 A 
BRANCH   7  11
ATOM     11  N   UNL     1      -4.214  -3.504   0.275  0.00  0.00    +0.000 N 
ATOM     12  H   UNL     1      -5.150  -3.137   0.498  0.00  0.00    +0.000 HD
ATOM     13  H   UNL     1      -4.077  -4.515   0.135  0.00  0.00    +0.000 HD
ENDBRANCH   7  11
ENDBRANCH   1  10
BRANCH   3  14
ATOM     14  C   UNL     1       1.086   2.205   0.008  0.00  0.00    +0.000 A 
ATOM     15  C   UNL     1       2.309   1.771   0.503  0.00  0.00    +0.000 A 
ATOM     16  C   UNL     1       3.396   2.622   0.496  0.00  0.00    +0.000 A 
ATOM     17  C   UNL     1       3.266   3.909   0.006  0.00  0.00    +0.000 A 
ATOM     18  C   UNL     1       2.048   4.346  -0.483  0.00  0.00    +0.000 A 
ATOM     19  C   UNL     1       0.958   3.498  -0.483  0.00  0.00    +0.000 A 
BRANCH  17  20
ATOM     20  S   UNL     1       4.654   4.994   0.005  0.00  0.00    +0.000 S 
ATOM     21  O   UNL     1       5.812   4.171   0.010  0.00  0.00    +0.000 OA
ATOM     22  O   UNL     1       4.412   5.962  -1.008  0.00  0.00    +0.000 OA
ATOM     23  O   UNL     1       4.644   5.740   1.331  0.00  0.00    +0.000 OA
ENDBRANCH  17  20
ENDBRANCH   3  14
TORSDOF 4
ENDMDL
MODEL      568
REMARK  Name = ZINC19514932
REMARK  3 active torsions:
REMARK  status: ('A' for Active; 'I' for Inactive)
REMARK    1  A    between atoms: C_3  and  S_7
REMARK    2  A    between atoms: S_7  and  N_10
REMARK    3  A    between atoms: N_10  and  C_11
REMARK                            x       y       z     vdW  Elec       q    Type
REMARK                         _______ _______ _______ _____ _____    ______ ____
ROOT
ATOM      1  S   UNL     1       2.510   4.527   0.416  0.00  0.00    +0.000 S 
ATOM      2  O   UNL     1       2.190   5.823  -0.072  0.00  0.00    +0.000 OA
ATOM      3  O   UNL     1       2.425   4.234   1.804  0.00  0.00    +0.000 OA
ENDROOT
BRANCH   1   6
ATOM      4  C   UNL     1       6.569   4.444  -0.247  0.00  0.00    +0.000 C 
ATOM      5  C   UNL     1       5.226   4.862   0.357  0.00  0.00    +0.000 C 
ATOM      6  C   UNL     1       4.115   3.992  -0.239  0.00  0.00    +0.000 C 
ATOM      7  C   UNL     1       4.120   4.138  -1.762  0.00  0.00    +0.000 C 
ATOM      8  N   UNL     1       5.426   3.724  -2.290  0.00  0.00    +0.000 N 
ATOM      9  C   UNL     1       6.503   4.577  -1.770  0.00  0.00    +0.000 C 
ATOM     10  H   UNL     1       5.413   3.786  -3.318  0.00  0.00    +0.000 HD
ATOM     11  H   UNL     1       5.608   2.747  -2.020  0.00  0.00    +0.000 HD
ENDBRANCH   1   6
BRANCH   1  12
ATOM     12  N   UNL     1       1.404   3.522  -0.297  0.00  0.00    +0.000 NA
ATOM     13  H   UNL     1       0.704   3.905  -0.949  0.00  0.00    +0.000 HD
BRANCH  12  14
ATOM     14  C   UNL     1       1.419   2.087  -0.000  0.00  0.00    +0.000 C 
ATOM     15  C   UNL     1      -0.019   1.544   0.011  0.00  0.00    +0.000 C 
ATOM     16  C   UNL     1       0.002  -0.004   0.002  0.00  0.00    +0.000 C 
ATOM     17  S   UNL     1       1.582  -0.382  -0.860  0.00  0.00    +0.000 S 
ATOM     18  O   UNL     1       2.444  -1.070   0.035  0.00  0.00    +0.000 OA
ATOM     19  O   UNL     1       1.292  -0.952  -2.129  0.00  0.00    +0.000 OA
ATOM     20  C   UNL     1       2.215   1.332  -1.103  0.00  0.00    +0.000 C 
ENDBRANCH  12  14
ENDBRANCH   1  12
TORSDOF 3
ENDMDL
MODEL      569
REMARK  Name = ZINC16082810
REMARK  5 active torsions:
REMARK  status: ('A' for Active; 'I' for Inactive)
REMARK    1  A    between atoms: C_1  and  C_2
REMARK    2  A    between atoms: C_3  and  C_16
REMARK    3  A    between atoms: C_5  and  C_12
REMARK    4  A    between atoms: C_6  and  C_8
REMARK    5  A    between atoms: N_13  and  O_14
REMARK                            x       y       z     vdW  Elec       q    Type
REMARK                         _______ _______ _______ _____ _____    ______ ____
ROOT
ATOM      1  C   UNL     1       1.481   1.514   2.146  0.00  0.00    +0.000 C 
ATOM      2  C   UNL     1       0.001   1.772   2.259  0.00  0.00    +0.000 A 
ATOM      3  C   UNL     1      -0.820   1.575   1.157  0.00  0.00    +0.000 A 
ATOM      4  N   UNL     1      -2.116   1.803   1.243  0.00  0.00    +0.000 NA
ATOM      5  C   UNL     1      -2.645   2.212   2.392  0.00  0.00    +0.000 A 
ATOM      6  C   UNL     1      -1.814   2.412   3.508  0.00  0.00    +0.000 A 
ATOM      7  N   UNL     1      -0.508   2.184   3.404  0.00  0.00    +0.000 NA
ATOM      8  C   UNL     1      -0.226   1.105  -0.145  0.00  0.00    +0.000 C 
ENDROOT
BRANCH   6   9
ATOM      9  C   UNL     1      -2.389   2.874   4.790  0.00  0.00    +0.000 C 
ATOM     10  N   UNL     1      -3.646   3.202   4.859  0.00  0.00    +0.000 NA
ATOM     11  O   UNL     1      -4.171   3.746   6.056  0.00  0.00    +0.000 OA
ATOM     12  N   UNL     1      -1.588   2.959   5.918  0.00  0.00    +0.000 N 
ATOM     13  H   UNL     1      -0.593   2.700   5.864  0.00  0.00    +0.000 HD
ATOM     14  H   UNL     1      -1.988   3.281   6.811  0.00  0.00    +0.000 HD
ENDBRANCH   6   9
BRANCH   5  15
ATOM     15  C   UNL     1      -4.100   2.463   2.494  0.00  0.00    +0.000 C 
ATOM     16  N   UNL     1      -4.911   1.484   2.769  0.00  0.00    +0.000 NA
ATOM     17  N   UNL     1      -4.598   3.740   2.297  0.00  0.00    +0.000 N 
ATOM     18  H   UNL     1      -3.957   4.516   2.079  0.00  0.00    +0.000 HD
ATOM     19  H   UNL     1      -5.611   3.915   2.368  0.00  0.00    +0.000 HD
BRANCH  16  20
ATOM     20  O   UNL     1      -4.394   0.202   3.075  0.00  0.00    +0.000 OA
ATOM     21  H   UNL     1      -3.784   0.344   3.842  0.00  0.00    +0.000 HD
ENDBRANCH  16  20
ENDBRANCH   5  15
TORSDOF 3
ENDMDL
MODEL      570
REMARK  Name = ZINC05426335
REMARK  4 active torsions:
REMARK  status: ('A' for Active; 'I' for Inactive)
REMARK    1  A    between atoms: C3*_2  and  O3*_19
REMARK    2  A    between atoms: C4*_3  and  C5*_17
REMARK    3  A    between atoms: C1*_5  and  N_6
REMARK    4  A    between atoms: C5*_17  and  O5*_18
REMARK                            x       y       z     vdW  Elec       q    Type
REMARK                         _______ _______ _______ _____ _____    ______ ____
ROOT
ATOM      1  N   UNL     1      -0.724  -0.506  -1.167  0.00  0.00    +0.000 N 
ATOM      2  C   UNL     1      -2.074  -0.718  -1.267  0.00  0.00    +0.000 A 
ATOM      3  N   UNL     1      -3.124  -0.585  -0.486  0.00  0.00    +0.000 NA
ATOM      4  C   UNL     1      -4.347  -0.894  -0.910  0.00  0.00    +0.000 A 
ATOM      5  N   UNL     1      -4.619  -1.350  -2.119  0.00  0.00    +0.000 NA
ATOM      6  C   UNL     1      -3.658  -1.534  -3.036  0.00  0.00    +0.000 A 
ATOM      7  O   UNL     1      -3.916  -1.958  -4.151  0.00  0.00    +0.000 OA
ATOM      8  C   UNL     1      -2.276  -1.218  -2.638  0.00  0.00    +0.000 A 
ATOM      9  N   UNL     1      -1.098  -1.269  -3.210  0.00  0.00    +0.000 NA
ATOM     10  N   UNL     1      -0.176  -0.870  -2.407  0.00  0.00    +0.000 NA
ATOM     11  N   UNL     1      -5.394  -0.727  -0.033  0.00  0.00    +0.000 N 
ATOM     12  H   UNL     1      -5.245  -0.375   0.923  0.00  0.00    +0.000 HD
ATOM     13  H   UNL     1      -6.348  -0.961  -0.345  0.00  0.00    +0.000 HD
ENDROOT
BRANCH   1  18
ATOM     14  C2* UNL     1      -0.019   1.537   0.011  0.00  0.00    +0.000 C 
ATOM     15  C3* UNL     1       1.477   1.937  -0.002  0.00  0.00    +0.000 C 
ATOM     16  C4* UNL     1       2.161   0.650   0.525  0.00  0.00    +0.000 C 
ATOM     17  O4* UNL     1       1.379  -0.412  -0.062  0.00  0.00    +0.000 OA
ATOM     18  C1* UNL     1       0.002  -0.004   0.002  0.00  0.00    +0.000 C 
BRANCH  15  19
ATOM     19  O3* UNL     1       1.913   2.240  -1.328  0.00  0.00    +0.000 OA
ATOM     20  H3* UNL     1       1.368   2.987  -1.682  0.00  0.00    +0.000 HD
ENDBRANCH  15  19
BRANCH  16  21
ATOM     21  C5* UNL     1       3.613   0.577   0.047  0.00  0.00    +0.000 C 
BRANCH  21  22
ATOM     22  O5* UNL     1       4.223  -0.611   0.556  0.00  0.00    +0.000 OA
ATOM     23  H5* UNL     1       3.728  -1.403   0.228  0.00  0.00    +0.000 HD
ENDBRANCH  21  22
ENDBRANCH  16  21
ENDBRANCH   1  18
TORSDOF 4
ENDMDL
MODEL      571
REMARK  Name = ZINC10475064
REMARK  8 active torsions:
REMARK  status: ('A' for Active; 'I' for Inactive)
REMARK    1  A    between atoms: C_1  and  N_2
REMARK    2  A    between atoms: C_3  and  S_7
REMARK    3  A    between atoms: S_7  and  C_8
REMARK    4  A    between atoms: C_8  and  C_9
REMARK    5  A    between atoms: C_9  and  N_19
REMARK    6  A    between atoms: C_10  and  C_11
REMARK    7  A    between atoms: C_10  and  N_19
REMARK    8  A    between atoms: C_16  and  C_17
REMARK                            x       y       z     vdW  Elec       q    Type
REMARK                         _______ _______ _______ _____ _____    ______ ____
ROOT
ATOM      1  N   UNL     1      -1.405  -2.008   0.005  0.00  0.00    +0.000 N 
ATOM      2  H   UNL     1      -0.916  -2.336  -0.841  0.00  0.00    +0.000 HD
ATOM      3  H   UNL     1      -0.900  -2.346   0.837  0.00  0.00    +0.000 HD
ENDROOT
BRANCH   1   4
ATOM      4  C   UNL     1      -1.433  -0.534   0.013  0.00  0.00    +0.000 C 
BRANCH   4   5
ATOM      5  C   UNL     1       0.002  -0.004   0.002  0.00  0.00    +0.000 C 
BRANCH   5   6
ATOM      6  S   UNL     1      -0.022   1.806   0.012  0.00  0.00    +0.000 S 
BRANCH   6   9
ATOM      7  C   UNL     1       1.631   4.662  -0.001  0.00  0.00    +0.000 C 
ATOM      8  N   UNL     1       2.295   3.356  -0.007  0.00  0.00    +0.000 N 
ATOM      9  C   UNL     1       1.708   2.135  -0.003  0.00  0.00    +0.000 A 
ATOM     10  N   UNL     1       2.674   1.242  -0.017  0.00  0.00    +0.000 NA
ATOM     11  N   UNL     1       3.821   1.820  -0.025  0.00  0.00    +0.000 NA
ATOM     12  N   UNL     1       3.678   3.101  -0.016  0.00  0.00    +0.000 NA
ENDBRANCH   6   9
ENDBRANCH   5   6
ENDBRANCH   4   5
ENDBRANCH   1   4
BRANCH   1  13
ATOM     13  C   UNL     1      -2.777  -2.547   0.015  0.00  0.00    +0.000 C 
BRANCH  13  14
ATOM     14  C   UNL     1      -2.717  -4.053   0.006  0.00  0.00    +0.000 A 
ATOM     15  C   UNL     1      -2.913  -4.746  -1.170  0.00  0.00    +0.000 A 
ATOM     16  C   UNL     1      -2.852  -6.128  -1.181  0.00  0.00    +0.000 A 
ATOM     17  C   UNL     1      -2.606  -6.826  -0.011  0.00  0.00    +0.000 A 
ATOM     18  C   UNL     1      -2.413  -6.146   1.173  0.00  0.00    +0.000 A 
ATOM     19  C   UNL     1      -2.468  -4.750   1.190  0.00  0.00    +0.000 A 
BRANCH  19  20
ATOM     20  C   UNL     1      -2.263  -4.015   2.455  0.00  0.00    +0.000 C 
ATOM     21  O   UNL     1      -2.312  -2.801   2.467  0.00  0.00    +0.000 OA
ATOM     22  O   UNL     1      -2.023  -4.691   3.595  0.00  0.00    +0.000 OA
ENDBRANCH  19  20
ENDBRANCH  13  14
ENDBRANCH   1  13
TORSDOF 7
ENDMDL
MODEL      572
REMARK  Name = ZINC19518055
REMARK  9 active torsions:
REMARK  status: ('A' for Active; 'I' for Inactive)
REMARK    1  A    between atoms: C_1  and  O_2
REMARK    2  A    between atoms: O_2  and  C_3
REMARK    3  A    between atoms: C_6  and  N_9
REMARK    4  A    between atoms: C_10  and  C_12
REMARK    5  A    between atoms: C_12  and  S_13
REMARK    6  A    between atoms: S_13  and  C_14
REMARK    7  A    between atoms: C_14  and  C_15
REMARK    8  A    between atoms: C_15  and  C_16
REMARK    9  A    between atoms: C_15  and  N_19
REMARK                            x       y       z     vdW  Elec       q    Type
REMARK                         _______ _______ _______ _____ _____    ______ ____
ROOT
ATOM      1  N   UNK     1       1.234  -2.083  -0.020  0.00  0.00    +0.000 N 
ATOM      2  C   UNK     1       2.405  -2.739  -0.137  0.00  0.00    +0.000 C 
ATOM      3  O   UNK     1       3.449  -2.122  -0.144  0.00  0.00    +0.000 OA
ATOM      4  H   UNK     1       0.354  -2.610   0.068  0.00  0.00    +0.000 HD
ENDROOT
BRANCH   1   8
ATOM      5  C   UNK     1       1.173   2.087  -0.017  0.00  0.00    +0.000 A 
ATOM      6  C   UNK     1       2.117   1.408  -0.773  0.00  0.00    +0.000 A 
ATOM      7  C   UNK     1       2.138   0.027  -0.775  0.00  0.00    +0.000 A 
ATOM      8  C   UNK     1       1.213  -0.681  -0.019  0.00  0.00    +0.000 A 
ATOM      9  C   UNK     1       0.269  -0.001   0.738  0.00  0.00    +0.000 A 
ATOM     10  C   UNK     1       0.249   1.379   0.739  0.00  0.00    +0.000 A 
BRANCH   5  12
ATOM     11  C   UNK     1       0.154   4.080   0.786  0.00  0.00    +0.000 C 
ATOM     12  O   UNK     1       1.153   3.446  -0.015  0.00  0.00    +0.000 OA
ENDBRANCH   5  12
ENDBRANCH   1   8
BRANCH   2  13
ATOM     13  C   UNK     1       2.417  -4.241  -0.258  0.00  0.00    +0.000 C 
BRANCH  13  14
ATOM     14  S   UNK     1       4.130  -4.822  -0.398  0.00  0.00    +0.000 S 
BRANCH  14  15
ATOM     15  C   UNK     1       3.973  -6.624  -0.534  0.00  0.00    +0.000 C 
BRANCH  15  16
ATOM     16  C   UNK     1       5.363  -7.250  -0.660  0.00  0.00    +0.000 C 
BRANCH  16  17
ATOM     17  N   UNK     1       6.030  -6.725  -1.859  0.00  0.00    +0.000 N 
ATOM     18  H   UNK     1       6.120  -5.702  -1.782  0.00  0.00    +0.000 HD
ATOM     19  H   UNK     1       5.472  -6.958  -2.693  0.00  0.00    +0.000 HD
ATOM     20  H   UNK     1       6.966  -7.145  -1.944  0.00  0.00    +0.000 HD
ENDBRANCH  16  17
BRANCH  16  21
ATOM     21  C   UNK     1       5.232  -8.747  -0.773  0.00  0.00    +0.000 C 
ATOM     22  O   UNK     1       5.305  -9.280  -1.855  0.00  0.00    +0.000 OA
ATOM     23  O   UNK     1       5.035  -9.488   0.329  0.00  0.00    +0.000 OA
ENDBRANCH  16  21
ENDBRANCH  15  16
ENDBRANCH  14  15
ENDBRANCH  13  14
ENDBRANCH   2  13
TORSDOF 8
ENDMDL
MODEL      573
REMARK  Name = ZINC02033672
REMARK  9 active torsions:
REMARK  status: ('A' for Active; 'I' for Inactive)
REMARK    1  A    between atoms: C_1  and  C_2
REMARK    2  A    between atoms: C_4  and  C_16
REMARK    3  A    between atoms: N_8  and  C_9
REMARK    4  A    between atoms: C_9  and  C_10
REMARK    5  A    between atoms: C_10  and  C_11
REMARK    6  A    between atoms: C_11  and  C_12
REMARK    7  A    between atoms: C_12  and  C_13
REMARK    8  A    between atoms: C_13  and  C_14
REMARK    9  A    between atoms: C_13  and  N_18
REMARK                            x       y       z     vdW  Elec       q    Type
REMARK                         _______ _______ _______ _____ _____    ______ ____
ROOT
ATOM      1  C   UNK     1      -0.777   1.606  -3.730  0.00  0.00    +0.000 C 
ENDROOT
BRANCH   1   9
ATOM      2  C   UNK     1      -3.403   3.406  -7.547  0.00  0.00    +0.000 C 
ATOM      3  C   UNK     1      -2.163   2.554  -7.455  0.00  0.00    +0.000 A 
ATOM      4  C   UNK     1      -1.527   2.115  -8.605  0.00  0.00    +0.000 A 
ATOM      5  C   UNK     1      -0.389   1.334  -8.476  0.00  0.00    +0.000 A 
ATOM      6  N   UNK     1       0.052   1.033  -7.266  0.00  0.00    +0.000 NA
ATOM      7  C   UNK     1      -0.580   1.468  -6.186  0.00  0.00    +0.000 A 
ATOM      8  N   UNK     1      -1.673   2.212  -6.275  0.00  0.00    +0.000 NA
ATOM      9  N   UNK     1      -0.091   1.134  -4.935  0.00  0.00    +0.000 N 
ATOM     10  C   UNK     1       0.336   0.835  -9.698  0.00  0.00    +0.000 C 
ATOM     11  H   UNK     1       0.755   0.552  -4.852  0.00  0.00    +0.000 HD
ENDBRANCH   1   9
BRANCH   1  12
ATOM     12  C   UNK     1      -0.037   1.099  -2.490  0.00  0.00    +0.000 C 
BRANCH  12  13
ATOM     13  C   UNK     1      -0.753   1.593  -1.232  0.00  0.00    +0.000 C 
BRANCH  13  14
ATOM     14  C   UNK     1      -0.013   1.086   0.008  0.00  0.00    +0.000 C 
BRANCH  14  15
ATOM     15  C   UNK     1      -0.729   1.579   1.267  0.00  0.00    +0.000 C 
BRANCH  15  16
ATOM     16  N   UNK     1      -0.656   3.048   1.358  0.00  0.00    +0.000 N 
ATOM     17  H   UNK     1      -1.102   3.460   0.525  0.00  0.00    +0.000 HD
ATOM     18  H   UNK     1       0.332   3.335   1.390  0.00  0.00    +0.000 HD
ATOM     19  H   UNK     1      -1.140   3.372   2.207  0.00  0.00    +0.000 HD
ENDBRANCH  15  16
BRANCH  15  20
ATOM     20  C   UNK     1      -0.074   0.981   2.485  0.00  0.00    +0.000 C 
ATOM     21  O   UNK     1       0.713   1.633   3.130  0.00  0.00    +0.000 OA
ATOM     22  O   UNK     1      -0.364  -0.277   2.853  0.00  0.00    +0.000 OA
ENDBRANCH  15  20
ENDBRANCH  14  15
ENDBRANCH  13  14
ENDBRANCH  12  13
ENDBRANCH   1  12
TORSDOF 7
ENDMDL
MODEL      574
REMARK  Name = ZINC04535632
REMARK  10 active torsions:
REMARK  status: ('A' for Active; 'I' for Inactive)
REMARK    1  A    between atoms: C_1  and  C_2
REMARK    2  A    between atoms: C_5  and  C_8
REMARK    3  A    between atoms: C_9  and  C_20
REMARK    4  A    between atoms: N_13  and  C_14
REMARK    5  A    between atoms: C_14  and  C_15
REMARK    6  A    between atoms: C_15  and  N_23
REMARK    7  A    between atoms: C_16  and  C_17
REMARK    8  A    between atoms: C_16  and  N_23
REMARK    9  A    between atoms: C_17  and  O_18
REMARK   10  A    between atoms: C_20  and  C_22
REMARK                            x       y       z     vdW  Elec       q    Type
REMARK                         _______ _______ _______ _____ _____    ______ ____
ROOT
ATOM      1  C   UNL     1       2.481   1.064  -0.013  0.00  0.00    +0.000 C 
ATOM      2  C   UNL     1       3.150   1.141   1.340  0.00  0.00    +0.000 C 
ATOM      3  C   UNL     1       4.340   1.763   1.152  0.00  0.00    +0.000 C 
ATOM      4  C   UNL     1       4.488   2.104  -0.280  0.00  0.00    +0.000 C 
ATOM      5  O   UNL     1       5.447   2.669  -0.767  0.00  0.00    +0.000 OA
ATOM      6  N   UNL     1       3.403   1.697  -0.963  0.00  0.00    +0.000 N 
ATOM      7  O   UNL     1       5.247   2.030   2.119  0.00  0.00    +0.000 OA
ENDROOT
BRANCH   1  12
ATOM      8  C   UNL     1      -2.539   3.925   0.090  0.00  0.00    +0.000 C 
ATOM      9  C   UNL     1      -1.230   3.179   0.063  0.00  0.00    +0.000 A 
ATOM     10  C   UNL     1      -0.037   3.872   0.155  0.00  0.00    +0.000 A 
ATOM     11  C   UNL     1       1.164   3.188   0.125  0.00  0.00    +0.000 A 
ATOM     12  C   UNL     1       1.172   1.810   0.014  0.00  0.00    +0.000 A 
ATOM     13  C   UNL     1      -0.021   1.117  -0.073  0.00  0.00    +0.000 A 
ATOM     14  C   UNL     1      -1.221   1.801  -0.048  0.00  0.00    +0.000 A 
ENDBRANCH   1  12
BRANCH   2  15
ATOM     15  C   UNL     1       2.635   0.657   2.566  0.00  0.00    +0.000 C 
ATOM     16  O   UNL     1       3.230   0.871   3.601  0.00  0.00    +0.000 OA
ATOM     17  C   UNL     1       1.347  -0.126   2.585  0.00  0.00    +0.000 C 
ENDBRANCH   2  15
BRANCH   6  18
ATOM     18  C   UNL     1       3.181   1.857  -2.402  0.00  0.00    +0.000 C 
BRANCH  18  19
ATOM     19  C   UNL     1       2.474   3.189  -2.664  0.00  0.00    +0.000 C 
BRANCH  19  20
ATOM     20  N   UNL     1       2.254   3.342  -4.114  0.00  0.00    +0.000 N 
ATOM     21  H   UNL     1       3.162   3.325  -4.601  0.00  0.00    +0.000 HD
ATOM     22  H   UNL     1       1.673   2.564  -4.457  0.00  0.00    +0.000 HD
BRANCH  20  23
ATOM     23  C   UNL     1       1.573   4.620  -4.397  0.00  0.00    +0.000 C 
BRANCH  23  24
ATOM     24  C   UNL     1       1.359   4.751  -5.906  0.00  0.00    +0.000 C 
BRANCH  24  25
ATOM     25  O   UNL     1       0.460   3.733  -6.349  0.00  0.00    +0.000 OA
ATOM     26  H   UNL     1      -0.408   3.832  -5.884  0.00  0.00    +0.000 HD
ENDBRANCH  24  25
ENDBRANCH  23  24
ENDBRANCH  20  23
ENDBRANCH  19  20
ENDBRANCH  18  19
ENDBRANCH   6  18
TORSDOF 8
ENDMDL
MODEL      575
REMARK  Name = ZINC04844446
REMARK  9 active torsions:
REMARK  status: ('A' for Active; 'I' for Inactive)
REMARK    1  A    between atoms: C_4  and  N_14
REMARK    2  A    between atoms: C_6  and  C_7
REMARK    3  A    between atoms: C_7  and  N_17
REMARK    4  A    between atoms: C_8  and  C_9
REMARK    5  A    between atoms: C_8  and  N_17
REMARK    6  A    between atoms: C_9  and  O_10
REMARK    7  A    between atoms: C_11  and  C_12
REMARK    8  A    between atoms: C_11  and  N_17
REMARK    9  A    between atoms: C_12  and  O_13
REMARK                            x       y       z     vdW  Elec       q    Type
REMARK                         _______ _______ _______ _____ _____    ______ ____
ROOT
ATOM      1  C   UNL     1      -0.249   1.123   0.230  0.00  0.00    +0.000 C 
ENDROOT
BRANCH   1   7
ATOM      2  C   UNL     1      -0.874   3.041   1.711  0.00  0.00    +0.000 A 
ATOM      3  C   UNL     1      -1.673   3.616   2.680  0.00  0.00    +0.000 A 
ATOM      4  C   UNL     1      -2.714   2.890   3.239  0.00  0.00    +0.000 A 
ATOM      5  C   UNL     1      -2.954   1.590   2.820  0.00  0.00    +0.000 A 
ATOM      6  C   UNL     1      -2.156   1.021   1.847  0.00  0.00    +0.000 A 
ATOM      7  C   UNL     1      -1.118   1.746   1.291  0.00  0.00    +0.000 A 
ATOM      8  O   UNL     1      -3.499   3.453   4.196  0.00  0.00    +0.000 OA
BRANCH   5   9
ATOM      9  N   UNL     1      -4.065   0.813   3.415  0.00  0.00    +0.000 N 
ATOM     10  O   UNL     1      -4.275  -0.329   3.046  0.00  0.00    +0.000 OA
ATOM     11  O   UNL     1      -4.768   1.315   4.272  0.00  0.00    +0.000 OA
ENDBRANCH   5   9
ENDBRANCH   1   7
BRANCH   1  12
ATOM     12  N   UNL     1      -0.830   1.422  -1.096  0.00  0.00    +0.000 N 
ATOM     13  H   UNL     1      -1.080   2.421  -1.134  0.00  0.00    +0.000 HD
BRANCH  12  14
ATOM     14  C   UNL     1       0.158   1.134  -2.157  0.00  0.00    +0.000 C 
BRANCH  14  15
ATOM     15  C   UNL     1      -0.359   1.703  -3.480  0.00  0.00    +0.000 C 
BRANCH  15  16
ATOM     16  O   UNL     1      -0.424   3.128  -3.392  0.00  0.00    +0.000 OA
ATOM     17  H   UNL     1       0.479   3.490  -3.208  0.00  0.00    +0.000 HD
ENDBRANCH  15  16
ENDBRANCH  14  15
ENDBRANCH  12  14
BRANCH  12  18
ATOM     18  C   UNL     1      -2.049   0.614  -1.308  0.00  0.00    +0.000 C 
BRANCH  18  19
ATOM     19  C   UNL     1      -1.697  -0.873  -1.401  0.00  0.00    +0.000 C 
BRANCH  19  20
ATOM     20  O   UNL     1      -1.270  -1.342  -0.120  0.00  0.00    +0.000 OA
ATOM     21  H   UNL     1      -1.998  -1.217   0.538  0.00  0.00    +0.000 HD
ENDBRANCH  19  20
ENDBRANCH  18  19
ENDBRANCH  12  18
ENDBRANCH   1  12
TORSDOF 9
ENDMDL
MODEL      576
REMARK  Name = ZINC16980735
REMARK  12 active torsions:
REMARK  status: ('A' for Active; 'I' for Inactive)
REMARK    1  A    between atoms: C_1  and  C_2
REMARK    2  A    between atoms: C_2  and  C_19
REMARK    3  A    between atoms: C_5  and  C_12
REMARK    4  A    between atoms: C_7  and  O_10
REMARK    5  A    between atoms: O_10  and  C_11
REMARK    6  A    between atoms: C_12  and  N_20
REMARK    7  A    between atoms: C_13  and  C_14
REMARK    8  A    between atoms: C_13  and  N_20
REMARK    9  A    between atoms: C_14  and  O_15
REMARK   10  A    between atoms: C_16  and  C_17
REMARK   11  A    between atoms: C_16  and  N_20
REMARK   12  A    between atoms: C_17  and  O_18
REMARK                            x       y       z     vdW  Elec       q    Type
REMARK                         _______ _______ _______ _____ _____    ______ ____
ROOT
ATOM      1  C   UNL     1      -0.388   0.602   0.367  0.00  0.00    +0.000 C 
ATOM      2  C   UNL     1      -0.124  -0.888   0.143  0.00  0.00    +0.000 C 
ATOM      3  O   UNL     1       0.537  -1.086  -1.140  0.00  0.00    +0.000 OA
ATOM      4  C   UNL     1      -0.428  -1.717  -1.932  0.00  0.00    +0.000 C 
ATOM      5  C   UNL     1      -0.198  -2.784  -2.974  0.00  0.00    +0.000 C 
ATOM      6  O   UNL     1      -1.466  -3.505  -2.987  0.00  0.00    +0.000 OA
ATOM      7  C   UNL     1      -2.118  -3.341  -1.698  0.00  0.00    +0.000 C 
ATOM      8  C   UNL     1      -1.121  -2.620  -0.833  0.00  0.00    +0.000 C 
ATOM      9  O   UNL     1      -1.392  -1.616   0.111  0.00  0.00    +0.000 OA
ATOM     10  C   UNL     1       0.757  -1.433   1.270  0.00  0.00    +0.000 C 
ENDROOT
BRANCH   7  11
ATOM     11  O   UNL     1      -2.428  -4.617  -1.136  0.00  0.00    +0.000 OA
ATOM     12  C   UNL     1      -3.454  -5.327  -1.834  0.00  0.00    +0.000 C 
ENDBRANCH   7  11
BRANCH   5  13
ATOM     13  C   UNL     1       0.086  -2.155  -4.340  0.00  0.00    +0.000 C 
BRANCH  13  14
ATOM     14  N   UNL     1       0.476  -3.226  -5.281  0.00  0.00    +0.000 N 
ATOM     15  H   UNL     1       1.100  -3.887  -4.797  0.00  0.00    +0.000 HD
BRANCH  14  16
ATOM     16  C   UNL     1      -0.724  -3.952  -5.747  0.00  0.00    +0.000 C 
BRANCH  16  17
ATOM     17  C   UNL     1      -1.700  -2.992  -6.431  0.00  0.00    +0.000 C 
BRANCH  17  18
ATOM     18  O   UNL     1      -1.160  -2.580  -7.689  0.00  0.00    +0.000 OA
ATOM     19  H   UNL     1      -1.020  -3.374  -8.264  0.00  0.00    +0.000 HD
ENDBRANCH  17  18
ENDBRANCH  16  17
ENDBRANCH  14  16
BRANCH  14  20
ATOM     20  C   UNL     1       1.195  -2.646  -6.435  0.00  0.00    +0.000 C 
BRANCH  20  21
ATOM     21  C   UNL     1       1.893  -3.774  -7.198  0.00  0.00    +0.000 C 
BRANCH  21  22
ATOM     22  O   UNL     1       0.912  -4.602  -7.825  0.00  0.00    +0.000 OA
ATOM     23  H   UNL     1       0.375  -4.061  -8.456  0.00  0.00    +0.000 HD
ENDBRANCH  21  22
ENDBRANCH  20  21
ENDBRANCH  14  20
ENDBRANCH  13  14
ENDBRANCH   5  13
TORSDOF 9
ENDMDL
MODEL      577
REMARK  Name = ZINC05870781
REMARK  9 active torsions:
REMARK  status: ('A' for Active; 'I' for Inactive)
REMARK    1  A    between atoms: C_1  and  C_2
REMARK    2  A    between atoms: C_2  and  O_3
REMARK    3  A    between atoms: O_3  and  C_4
REMARK    4  A    between atoms: C_4  and  C_6
REMARK    5  A    between atoms: C_8  and  C_12
REMARK    6  A    between atoms: C_9  and  C_11
REMARK    7  A    between atoms: C_12  and  N_16
REMARK    8  A    between atoms: C_13  and  C_14
REMARK    9  A    between atoms: C_13  and  N_16
REMARK                            x       y       z     vdW  Elec       q    Type
REMARK                         _______ _______ _______ _____ _____    ______ ____
ROOT
ATOM      1  C   UNL     1      -1.256  -0.754   0.010  0.00  0.00    +0.000 A 
ATOM      2  C   UNL     1      -1.381  -2.114  -0.002  0.00  0.00    +0.000 A 
ATOM      3  C   UNL     1      -2.756  -2.394   0.016  0.00  0.00    +0.000 A 
ATOM      4  C   UNL     1      -3.403  -1.207   0.028  0.00  0.00    +0.000 A 
ATOM      5  O   UNL     1      -2.496  -0.222   0.024  0.00  0.00    +0.000 OA
ATOM      6  C   UNL     1      -4.899  -1.024   0.042  0.00  0.00    +0.000 C 
ENDROOT
BRANCH   1   7
ATOM      7  C   UNL     1       0.002  -0.004   0.002  0.00  0.00    +0.000 C 
ATOM      8  O   UNL     1       1.063  -0.598  -0.011  0.00  0.00    +0.000 OA
BRANCH   7   9
ATOM      9  O   UNL     1      -0.016   1.345   0.009  0.00  0.00    +0.000 OA
BRANCH   9  11
ATOM     10  C   UNL     1       1.047   3.535   0.011  0.00  0.00    +0.000 C 
ATOM     11  C   UNL     1       1.268   2.022   0.001  0.00  0.00    +0.000 C 
ENDBRANCH   9  11
ENDBRANCH   7   9
ENDBRANCH   1   7
BRANCH   3  12
ATOM     12  C   UNL     1      -3.391  -3.760   0.015  0.00  0.00    +0.000 C 
BRANCH  12  13
ATOM     13  N   UNL     1      -3.828  -4.090  -1.355  0.00  0.00    +0.000 N 
ATOM     14  H   UNL     1      -4.508  -3.386  -1.675  0.00  0.00    +0.000 HD
ATOM     15  H   UNL     1      -3.013  -4.082  -1.985  0.00  0.00    +0.000 HD
BRANCH  13  16
ATOM     16  C   UNL     1      -4.455  -5.424  -1.385  0.00  0.00    +0.000 C 
BRANCH  16  17
ATOM     17  C   UNL     1      -4.890  -5.734  -2.794  0.00  0.00    +0.000 C 
ATOM     18  O   UNL     1      -4.699  -4.930  -3.676  0.00  0.00    +0.000 OA
ATOM     19  O   UNL     1      -5.491  -6.902  -3.070  0.00  0.00    +0.000 OA
ENDBRANCH  16  17
ENDBRANCH  13  16
ENDBRANCH  12  13
ENDBRANCH   3  12
TORSDOF 7
ENDMDL
MODEL      578
REMARK  Name = ZINC22150898
REMARK  9 active torsions:
REMARK  status: ('A' for Active; 'I' for Inactive)
REMARK    1  A    between atoms: C_1  and  C_2
REMARK    2  A    between atoms: C_2  and  N_3
REMARK    3  A    between atoms: N_3  and  C_4
REMARK    4  A    between atoms: N_3  and  C_6
REMARK    5  A    between atoms: C_4  and  C_5
REMARK    6  A    between atoms: C_6  and  C_7
REMARK    7  A    between atoms: C_7  and  N_8
REMARK    8  A    between atoms: N_14  and  C_21
REMARK    9  A    between atoms: N_17  and  C_20
REMARK                            x       y       z     vdW  Elec       q    Type
REMARK                         _______ _______ _______ _____ _____    ______ ____
ROOT
ATOM      1  N   UNL     1      -4.529   0.995   5.739  0.00  0.00    +0.000 N 
ATOM      2  C   UNL     1      -4.082   1.072   4.440  0.00  0.00    +0.000 A 
ATOM      3  N   UNL     1      -3.565   0.038   3.724  0.00  0.00    +0.000 NA
ATOM      4  C   UNL     1      -3.241   0.541   2.471  0.00  0.00    +0.000 A 
ATOM      5  C   UNL     1      -3.586   1.888   2.489  0.00  0.00    +0.000 A 
ATOM      6  N   UNL     1      -4.088   2.159   3.695  0.00  0.00    +0.000 NA
ATOM      7  N   UNL     1      -3.368   2.648   1.351  0.00  0.00    +0.000 N 
ATOM      8  C   UNL     1      -2.827   2.083   0.256  0.00  0.00    +0.000 A 
ATOM      9  O   UNL     1      -2.638   2.766  -0.732  0.00  0.00    +0.000 OA
ATOM     10  N   UNL     1      -2.495   0.781   0.227  0.00  0.00    +0.000 N 
ATOM     11  C   UNL     1      -2.683  -0.009   1.304  0.00  0.00    +0.000 A 
ATOM     12  O   UNL     1      -2.373  -1.187   1.266  0.00  0.00    +0.000 OA
ATOM     13  C   UNL     1      -1.914   0.212  -0.992  0.00  0.00    +0.000 C 
ATOM     14  C   UNL     1      -3.722   4.070   1.342  0.00  0.00    +0.000 C 
ATOM     15  H   UNL     1      -4.907   1.833   6.204  0.00  0.00    +0.000 HD
ENDROOT
BRANCH   1  16
ATOM     16  C   UNL     1      -4.469  -0.278   6.460  0.00  0.00    +0.000 C 
BRANCH  16  17
ATOM     17  C   UNL     1      -5.024  -0.091   7.873  0.00  0.00    +0.000 C 
BRANCH  17  18
ATOM     18  N   UNL     1      -4.963  -1.368   8.597  0.00  0.00    +0.000 N 
ATOM     19  H   UNL     1      -5.416  -2.084   8.012  0.00  0.00    +0.000 HD
BRANCH  18  21
ATOM     20  C   UNL     1      -2.855  -0.726   9.666  0.00  0.00    +0.000 C 
ATOM     21  C   UNL     1      -3.571  -1.781   8.820  0.00  0.00    +0.000 C 
ENDBRANCH  18  21
BRANCH  18  22
ATOM     22  C   UNL     1      -5.699  -1.289   9.866  0.00  0.00    +0.000 C 
ATOM     23  C   UNL     1      -5.951  -2.702  10.397  0.00  0.00    +0.000 C 
ENDBRANCH  18  22
ENDBRANCH  17  18
ENDBRANCH  16  17
ENDBRANCH   1  16
TORSDOF 5
ENDMDL
MODEL      579
REMARK  Name = ZINC05258154
REMARK  11 active torsions:
REMARK  status: ('A' for Active; 'I' for Inactive)
REMARK    1  A    between atoms: C_1  and  C_2
REMARK    2  A    between atoms: C_4  and  C_19
REMARK    3  A    between atoms: C_6  and  N_8
REMARK    4  A    between atoms: C_9  and  C_11
REMARK    5  A    between atoms: C_11  and  C_12
REMARK    6  A    between atoms: C_12  and  C_13
REMARK    7  A    between atoms: C_12  and  N_21
REMARK    8  A    between atoms: C_15  and  C_16
REMARK    9  A    between atoms: C_15  and  N_21
REMARK   10  A    between atoms: C_16  and  C_17
REMARK   11  A    between atoms: C_16  and  O_18
REMARK                            x       y       z     vdW  Elec       q    Type
REMARK                         _______ _______ _______ _____ _____    ______ ____
ROOT
ATOM      1  C   UNK A   1      -1.195  -1.953  -0.577  0.00  0.00    +0.000 C 
ENDROOT
BRANCH   1   3
ATOM      2  N   UNK A   1      -0.905  -2.971  -2.812  0.00  0.00    +0.000 N 
ATOM      3  C   UNK A   1      -0.811  -1.877  -2.032  0.00  0.00    +0.000 C 
ATOM      4  O   UNK A   1      -0.416  -0.830  -2.501  0.00  0.00    +0.000 OA
ATOM      5  H   UNK A   1      -1.161  -3.879  -2.397  0.00  0.00    +0.000 HD
BRANCH   2  11
ATOM      6  C   UNK A   1       0.796  -5.000  -6.955  0.00  0.00    +0.000 C 
ATOM      7  C   UNK A   1       0.170  -3.844  -6.218  0.00  0.00    +0.000 A 
ATOM      8  C   UNK A   1      -0.158  -2.686  -6.900  0.00  0.00    +0.000 A 
ATOM      9  C   UNK A   1      -0.733  -1.623  -6.228  0.00  0.00    +0.000 A 
ATOM     10  C   UNK A   1      -0.982  -1.715  -4.873  0.00  0.00    +0.000 A 
ATOM     11  C   UNK A   1      -0.654  -2.876  -4.185  0.00  0.00    +0.000 A 
ATOM     12  C   UNK A   1      -0.072  -3.939  -4.862  0.00  0.00    +0.000 A 
ATOM     13  C   UNK A   1      -1.088  -0.363  -6.975  0.00  0.00    +0.000 C 
ENDBRANCH   2  11
ENDBRANCH   1   3
BRANCH   1  14
ATOM     14  C   UNK A   1      -0.997  -0.583   0.076  0.00  0.00    +0.000 C 
BRANCH  14  15
ATOM     15  C   UNK A   1      -1.496  -0.627   1.497  0.00  0.00    +0.000 C 
ATOM     16  O   UNK A   1      -0.739  -0.396   2.411  0.00  0.00    +0.000 OA
ATOM     17  O   UNK A   1      -2.781  -0.922   1.748  0.00  0.00    +0.000 OA
ENDBRANCH  14  15
BRANCH  14  18
ATOM     18  N   UNK A   1       0.440  -0.247   0.069  0.00  0.00    +0.000 N 
ATOM     19  H   UNK A   1       0.894  -0.674   0.889  0.00  0.00    +0.000 HD
ATOM     20  H   UNK A   1       0.874  -0.619  -0.788  0.00  0.00    +0.000 HD
BRANCH  18  21
ATOM     21  C   UNK A   0       0.624   1.215   0.115  0.00  0.00    +0.000 C 
BRANCH  21  22
ATOM     22  C   UNK A   0       2.120   1.533   0.106  0.00  0.00    +0.000 C 
ATOM     23  C   UNK A   0       2.321   3.049   0.153  0.00  0.00    +0.000 C 
BRANCH  22  24
ATOM     24  O   UNK A   0       2.741   0.935   1.246  0.00  0.00    +0.000 OA
ATOM     25  H   UNK A   0       2.612  -0.046   1.216  0.00  0.00    +0.000 HD
ENDBRANCH  22  24
ENDBRANCH  21  22
ENDBRANCH  18  21
ENDBRANCH  14  18
ENDBRANCH   1  14
TORSDOF 8
ENDMDL
MODEL      580
REMARK  Name = ZINC20423296
REMARK  10 active torsions:
REMARK  status: ('A' for Active; 'I' for Inactive)
REMARK    1  A    between atoms: C_1  and  O_2
REMARK    2  A    between atoms: O_2  and  C_3
REMARK    3  A    between atoms: C_6  and  O_17
REMARK    4  A    between atoms: C_7  and  C_9
REMARK    5  A    between atoms: C_9  and  C_10
REMARK    6  A    between atoms: C_9  and  N_16
REMARK    7  A    between atoms: C_10  and  C_11
REMARK    8  A    between atoms: C_11  and  C_12
REMARK    9  A    between atoms: C_12  and  C_13
REMARK   10  A    between atoms: O_17  and  C_18
REMARK                            x       y       z     vdW  Elec       q    Type
REMARK                         _______ _______ _______ _____ _____    ______ ____
ROOT
ATOM      1  C   UNL     1      -0.795   1.527  -1.120  0.00  0.00    +0.000 C 
ENDROOT
BRANCH   1   6
ATOM      2  C   UNL     1      -3.802  -0.555  -0.170  0.00  0.00    +0.000 A 
ATOM      3  C   UNL     1      -4.820   0.102  -0.846  0.00  0.00    +0.000 A 
ATOM      4  C   UNL     1      -4.534   1.217  -1.609  0.00  0.00    +0.000 A 
ATOM      5  C   UNL     1      -3.230   1.681  -1.698  0.00  0.00    +0.000 A 
ATOM      6  C   UNL     1      -2.213   1.024  -1.022  0.00  0.00    +0.000 A 
ATOM      7  C   UNL     1      -2.498  -0.095  -0.263  0.00  0.00    +0.000 A 
BRANCH   5   8
ATOM      8  O   UNL     1      -2.949   2.779  -2.449  0.00  0.00    +0.000 OA
ATOM      9  C   UNL     1      -4.045   3.405  -3.118  0.00  0.00    +0.000 C 
ENDBRANCH   5   8
BRANCH   2  11
ATOM     10  C   UNL     1      -5.448  -2.075   0.628  0.00  0.00    +0.000 C 
ATOM     11  O   UNL     1      -4.084  -1.654   0.581  0.00  0.00    +0.000 OA
ENDBRANCH   2  11
ENDBRANCH   1   6
BRANCH   1  12
ATOM     12  N   UNL     1      -0.012   1.005   0.008  0.00  0.00    +0.000 N 
ATOM     13  H   UNL     1      -0.012  -0.025  -0.020  0.00  0.00    +0.000 HD
ATOM     14  H   UNL     1      -0.428   1.324   0.894  0.00  0.00    +0.000 HD
ATOM     15  H   UNL     1       0.957   1.348  -0.059  0.00  0.00    +0.000 HD
ENDBRANCH   1  12
BRANCH   1  16
ATOM     16  C   UNL     1      -0.175   1.052  -2.435  0.00  0.00    +0.000 C 
BRANCH  16  17
ATOM     17  C   UNL     1       1.218   1.664  -2.593  0.00  0.00    +0.000 C 
BRANCH  17  18
ATOM     18  C   UNL     1       1.838   1.189  -3.909  0.00  0.00    +0.000 C 
BRANCH  18  19
ATOM     19  C   UNL     1       3.210   1.793  -4.064  0.00  0.00    +0.000 C 
ATOM     20  O   UNL     1       3.647   2.527  -3.210  0.00  0.00    +0.000 OA
ATOM     21  O   UNL     1       3.946   1.514  -5.151  0.00  0.00    +0.000 OA
ENDBRANCH  18  19
ENDBRANCH  17  18
ENDBRANCH  16  17
ENDBRANCH   1  16
TORSDOF 8
ENDMDL
MODEL      581
REMARK  Name = ZINC04372269
REMARK  7 active torsions:
REMARK  status: ('A' for Active; 'I' for Inactive)
REMARK    1  A    between atoms: C_3  and  N_7
REMARK    2  A    between atoms: C_8  and  C_10
REMARK    3  A    between atoms: C_10  and  C_11
REMARK    4  A    between atoms: C_11  and  C_12
REMARK    5  A    between atoms: C_11  and  N_21
REMARK    6  A    between atoms: C_14  and  C_15
REMARK    7  A    between atoms: C_14  and  N_21
REMARK                            x       y       z     vdW  Elec       q    Type
REMARK                         _______ _______ _______ _____ _____    ______ ____
ROOT
ATOM      1  C   UNK A   1       2.629  -2.654  -0.354  0.00  0.00    +0.000 C 
ENDROOT
BRANCH   1   2
ATOM      2  C   UNK A   1       2.649  -4.161  -0.352  0.00  0.00    +0.000 C 
ATOM      3  O   UNK A   1       3.104  -4.760  -1.298  0.00  0.00    +0.000 OA
ATOM      4  O   UNK A   1       2.162  -4.838   0.700  0.00  0.00    +0.000 OA
ENDBRANCH   1   2
BRANCH   1   5
ATOM      5  N   UNK A   1       3.208  -2.155  -1.615  0.00  0.00    +0.000 N 
ATOM      6  H   UNK A   1       2.957  -2.795  -2.383  0.00  0.00    +0.000 HD
ATOM      7  H   UNK A   1       2.830  -1.219  -1.819  0.00  0.00    +0.000 HD
BRANCH   5   8
ATOM      8  C   UNK A   0       4.677  -2.076  -1.508  0.00  0.00    +0.000 C 
BRANCH   8   9
ATOM      9  C   UNK A   0       5.241  -1.564  -2.809  0.00  0.00    +0.000 A 
ATOM     10  C   UNK A   0       5.452  -0.273  -3.121  0.00  0.00    +0.000 A 
ATOM     11  C   UNK A   0       5.987  -0.250  -4.430  0.00  0.00    +0.000 A 
ATOM     12  C   UNK A   0       6.070  -1.529  -4.839  0.00  0.00    +0.000 A 
ATOM     13  O   UNK A   0       5.622  -2.321  -3.851  0.00  0.00    +0.000 OA
ENDBRANCH   8   9
ENDBRANCH   5   8
ENDBRANCH   1   5
BRANCH   1  14
ATOM     14  C   UNK A   1       1.185  -2.163  -0.236  0.00  0.00    +0.000 C 
BRANCH  14  16
ATOM     15  N   UNK A   1       0.002  -0.004   0.002  0.00  0.00    +0.000 N 
ATOM     16  C   UNK A   1       1.173  -0.661  -0.114  0.00  0.00    +0.000 C 
ATOM     17  O   UNK A   1       2.217  -0.044  -0.121  0.00  0.00    +0.000 OA
ATOM     18  H   UNK A   1      -0.879  -0.531   0.080  0.00  0.00    +0.000 HD
BRANCH  15  21
ATOM     19  C   UNK A   1       0.955   3.493   0.606  0.00  0.00    +0.000 A 
ATOM     20  C   UNK A   1       1.015   2.109   0.621  0.00  0.00    +0.000 A 
ATOM     21  C   UNK A   1      -0.016   1.395   0.017  0.00  0.00    +0.000 A 
ATOM     22  C   UNK A   1      -1.067   2.092  -0.567  0.00  0.00    +0.000 A 
ATOM     23  N   UNK A   1      -1.087   3.410  -0.554  0.00  0.00    +0.000 NA
ATOM     24  C   UNK A   1      -0.124   4.115   0.005  0.00  0.00    +0.000 A 
ENDBRANCH  15  21
ENDBRANCH  14  16
ENDBRANCH   1  14
TORSDOF 7
ENDMDL
MODEL      582
REMARK  Name = ZINC00330297
REMARK  9 active torsions:
REMARK  status: ('A' for Active; 'I' for Inactive)
REMARK    1  A    between atoms: C_1  and  O_2
REMARK    2  A    between atoms: O_2  and  C_3
REMARK    3  A    between atoms: C_3  and  C_5
REMARK    4  A    between atoms: C_5  and  C_6
REMARK    5  A    between atoms: C_6  and  C_7
REMARK    6  A    between atoms: C_6  and  N_18
REMARK    7  A    between atoms: C_9  and  C_10
REMARK    8  A    between atoms: C_9  and  N_18
REMARK    9  A    between atoms: C_15  and  O_16
REMARK                            x       y       z     vdW  Elec       q    Type
REMARK                         _______ _______ _______ _____ _____    ______ ____
ROOT
ATOM      1  N   UNK A   1      -0.732   1.579  -1.182  0.00  0.00    +0.000 N 
ATOM      2  H   UNK A   1      -0.749   2.608  -1.168  0.00  0.00    +0.000 HD
ATOM      3  H   UNK A   1      -1.699   1.225  -1.165  0.00  0.00    +0.000 HD
ENDROOT
BRANCH   1   4
ATOM      4  C   UNK A   1      -0.062   1.117  -2.413  0.00  0.00    +0.000 C 
BRANCH   4   5
ATOM      5  C   UNK A   1      -0.552  -0.264  -2.764  0.00  0.00    +0.000 C 
ATOM      6  O   UNK A   1      -1.368  -0.813  -2.062  0.00  0.00    +0.000 OA
ATOM      7  O   UNK A   1      -0.082  -0.884  -3.858  0.00  0.00    +0.000 OA
ENDBRANCH   4   5
BRANCH   4   8
ATOM      8  C   UNK A   1      -0.391   2.081  -3.554  0.00  0.00    +0.000 C 
BRANCH   8   9
ATOM      9  C   UNK A   1       0.206   3.433  -3.258  0.00  0.00    +0.000 C 
ATOM     10  O   UNK A   1       0.830   3.607  -2.238  0.00  0.00    +0.000 OA
BRANCH   9  12
ATOM     11  C   UNK A   1       0.646   5.717  -3.777  0.00  0.00    +0.000 C 
ATOM     12  O   UNK A   1       0.044   4.443  -4.127  0.00  0.00    +0.000 OA
ENDBRANCH   9  12
ENDBRANCH   8   9
ENDBRANCH   4   8
ENDBRANCH   1   4
BRANCH   1  13
ATOM     13  C   UNK A   0      -0.013   1.086   0.008  0.00  0.00    +0.000 C 
BRANCH  13  14
ATOM     14  C   UNK A   0      -0.718   1.572   1.248  0.00  0.00    +0.000 A 
ATOM     15  C   UNK A   0      -0.231   2.666   1.937  0.00  0.00    +0.000 A 
ATOM     16  C   UNK A   0      -0.880   3.115   3.072  0.00  0.00    +0.000 A 
ATOM     17  C   UNK A   0      -2.013   2.465   3.526  0.00  0.00    +0.000 A 
ATOM     18  C   UNK A   0      -2.501   1.367   2.844  0.00  0.00    +0.000 A 
ATOM     19  C   UNK A   0      -1.854   0.918   1.702  0.00  0.00    +0.000 A 
BRANCH  19  20
ATOM     20  O   UNK A   0      -2.333  -0.162   1.029  0.00  0.00    +0.000 OA
ATOM     21  H   UNK A   0      -1.575  -0.798   0.996  0.00  0.00    +0.000 HD
ENDBRANCH  19  20
ENDBRANCH  13  14
ENDBRANCH   1  13
TORSDOF 8
ENDMDL
MODEL      583
REMARK  Name = ZINC04192501
REMARK  8 active torsions:
REMARK  status: ('A' for Active; 'I' for Inactive)
REMARK    1  A    between atoms: C_1  and  C_2
REMARK    2  A    between atoms: C_3  and  N_9
REMARK    3  A    between atoms: C_10  and  C_12
REMARK    4  A    between atoms: C_12  and  C_13
REMARK    5  A    between atoms: C_13  and  C_14
REMARK    6  A    between atoms: C_13  and  N_20
REMARK    7  A    between atoms: C_16  and  C_17
REMARK    8  A    between atoms: C_16  and  N_20
REMARK                            x       y       z     vdW  Elec       q    Type
REMARK                         _______ _______ _______ _____ _____    ______ ____
ROOT
ATOM      1  N   UNK A   1      -3.817   2.538   0.856  0.00  0.00    +0.000 N 
ATOM      2  C   UNK A   1      -2.563   2.412   0.377  0.00  0.00    +0.000 C 
ATOM      3  O   UNK A   1      -1.660   3.060   0.864  0.00  0.00    +0.000 OA
ATOM      4  H   UNK A   1      -4.597   2.053   0.390  0.00  0.00    +0.000 HD
ENDROOT
BRANCH   1   7
ATOM      5  C   UNK A   1      -6.415   3.648   1.189  0.00  0.00    +0.000 C 
ATOM      6  C   UNK A   1      -5.312   3.887   2.188  0.00  0.00    +0.000 A 
ATOM      7  C   UNK A   1      -4.058   3.326   1.986  0.00  0.00    +0.000 A 
ATOM      8  C   UNK A   1      -3.043   3.553   2.906  0.00  0.00    +0.000 A 
ATOM      9  C   UNK A   1      -3.284   4.332   4.021  0.00  0.00    +0.000 A 
ATOM     10  C   UNK A   1      -4.535   4.886   4.223  0.00  0.00    +0.000 A 
ATOM     11  C   UNK A   1      -5.549   4.662   3.308  0.00  0.00    +0.000 A 
ATOM     12 CL   UNK A   1      -7.118   5.359   3.564  0.00  0.00    +0.000 Cl
ENDBRANCH   1   7
BRANCH   2  13
ATOM     13  C   UNK A   1      -2.282   1.466  -0.762  0.00  0.00    +0.000 C 
BRANCH  13  14
ATOM     14  C   UNK A   1      -0.793   1.514  -1.109  0.00  0.00    +0.000 C 
BRANCH  14  15
ATOM     15  C   UNK A   1      -0.534   0.663  -2.326  0.00  0.00    +0.000 C 
ATOM     16  O   UNK A   1       0.226  -0.274  -2.257  0.00  0.00    +0.000 OA
ATOM     17  O   UNK A   1      -1.146   0.947  -3.486  0.00  0.00    +0.000 OA
ENDBRANCH  14  15
BRANCH  14  18
ATOM     18  N   UNK A   1      -0.013   0.995   0.030  0.00  0.00    +0.000 N 
ATOM     19  H   UNK A   1      -0.476   1.263   0.910  0.00  0.00    +0.000 HD
ATOM     20  H   UNK A   1       0.034  -0.032  -0.027  0.00  0.00    +0.000 HD
BRANCH  18  21
ATOM     21  C   UNK A   0       1.354   1.548   0.009  0.00  0.00    +0.000 C 
BRANCH  21  22
ATOM     22  C   UNK A   0       2.126   1.002   1.182  0.00  0.00    +0.000 C 
ATOM     23  C   UNK A   0       3.266   0.387   0.987  0.00  0.00    +0.000 C 
ENDBRANCH  21  22
ENDBRANCH  18  21
ENDBRANCH  14  18
ENDBRANCH  13  14
ENDBRANCH   2  13
TORSDOF 7
ENDMDL
MODEL      584
REMARK  Name = ZINC21264479
REMARK  10 active torsions:
REMARK  status: ('A' for Active; 'I' for Inactive)
REMARK    1  A    between atoms: C_1  and  C_2
REMARK    2  A    between atoms: C_2  and  C_3
REMARK    3  A    between atoms: C_6  and  N_8
REMARK    4  A    between atoms: C_9  and  C_11
REMARK    5  A    between atoms: C_11  and  N_12
REMARK    6  A    between atoms: N_12  and  C_13
REMARK    7  A    between atoms: C_13  and  C_14
REMARK    8  A    between atoms: C_13  and  C_15
REMARK    9  A    between atoms: C_13  and  C_16
REMARK   10  A    between atoms: C_16  and  O_17
REMARK                            x       y       z     vdW  Elec       q    Type
REMARK                         _______ _______ _______ _____ _____    ______ ____
ROOT
ATOM      1  N   UNL     1      -6.080   0.367   0.904  0.00  0.00    +0.000 NA
ATOM      2  C   UNL     1      -6.724  -0.723   1.364  0.00  0.00    +0.000 C 
ATOM      3  O   UNL     1      -6.108  -1.592   1.944  0.00  0.00    +0.000 OA
ENDROOT
BRANCH   1   7
ATOM      4  C   UNL     1      -2.143   1.058   1.278  0.00  0.00    +0.000 A 
ATOM      5  N   UNL     1      -2.629  -0.059   1.782  0.00  0.00    +0.000 NA
ATOM      6  N   UNL     1      -3.860  -0.324   1.691  0.00  0.00    +0.000 NA
ATOM      7  C   UNL     1      -4.708   0.495   1.093  0.00  0.00    +0.000 A 
ATOM      8  S   UNL     1      -3.639   1.782   0.616  0.00  0.00    +0.000 S 
BRANCH   4  10
ATOM      9  C   UNL     1      -0.013   1.086   0.008  0.00  0.00    +0.000 C 
ATOM     10  C   UNL     1      -0.729   1.579   1.267  0.00  0.00    +0.000 C 
ENDBRANCH   4  10
ENDBRANCH   1   7
BRANCH   2  11
ATOM     11  C   UNL     1      -8.211  -0.863   1.159  0.00  0.00    +0.000 C 
BRANCH  11  12
ATOM     12  N   UNL     1      -8.670  -2.128   1.748  0.00  0.00    +0.000 N 
ATOM     13  H   UNL     1      -8.177  -2.911   1.296  0.00  0.00    +0.000 HD
ATOM     14  H   UNL     1      -8.452  -2.134   2.754  0.00  0.00    +0.000 HD
BRANCH  12  15
ATOM     15  C   UNL     1     -10.118  -2.298   1.566  0.00  0.00    +0.000 C 
ATOM     16  C   UNL     1     -10.857  -1.144   2.246  0.00  0.00    +0.000 C 
ATOM     17  C   UNL     1     -10.447  -2.304   0.072  0.00  0.00    +0.000 C 
BRANCH  15  18
ATOM     18  C   UNL     1     -10.558  -3.624   2.191  0.00  0.00    +0.000 C 
BRANCH  18  19
ATOM     19  O   UNL     1     -11.966  -3.789   2.014  0.00  0.00    +0.000 OA
ATOM     20  H   UNL     1     -12.180  -3.794   1.048  0.00  0.00    +0.000 HD
ENDBRANCH  18  19
ENDBRANCH  15  18
ENDBRANCH  12  15
ENDBRANCH  11  12
ENDBRANCH   2  11
TORSDOF 7
ENDMDL
MODEL      585
REMARK  Name = ZINC21302519
REMARK  11 active torsions:
REMARK  status: ('A' for Active; 'I' for Inactive)
REMARK    1  A    between atoms: C_1  and  C_2
REMARK    2  A    between atoms: C_2  and  C_3
REMARK    3  A    between atoms: C_2  and  C_4
REMARK    4  A    between atoms: C_2  and  O_5
REMARK    5  A    between atoms: O_5  and  C_6
REMARK    6  A    between atoms: C_6  and  C_8
REMARK    7  A    between atoms: C_8  and  C_9
REMARK    8  A    between atoms: C_8  and  C_14
REMARK    9  A    between atoms: C_14  and  C_15
REMARK   10  A    between atoms: C_14  and  N_19
REMARK   11  A    between atoms: C_15  and  C_16
REMARK                            x       y       z     vdW  Elec       q    Type
REMARK                         _______ _______ _______ _____ _____    ______ ____
ROOT
ATOM      1  C   UNL     1      -3.811   1.673  -0.097  0.00  0.00    +0.000 C 
ENDROOT
BRANCH   1   2
ATOM      2  C   UNL     1      -3.836   2.463  -1.380  0.00  0.00    +0.000 A 
ATOM      3  C   UNL     1      -3.980   3.796  -1.480  0.00  0.00    +0.000 A 
ATOM      4  C   UNL     1      -3.945   4.110  -2.858  0.00  0.00    +0.000 A 
ATOM      5  C   UNL     1      -3.790   2.948  -3.518  0.00  0.00    +0.000 A 
ATOM      6  O   UNL     1      -3.724   1.954  -2.618  0.00  0.00    +0.000 OA
ENDBRANCH   1   2
BRANCH   1   7
ATOM      7  C   UNL     1      -4.943   0.678  -0.097  0.00  0.00    +0.000 C 
ATOM      8  O   UNL     1      -4.708  -0.504  -0.013  0.00  0.00    +0.000 OA
BRANCH   7   9
ATOM      9  O   UNL     1      -6.212   1.106  -0.190  0.00  0.00    +0.000 OA
BRANCH   9  11
ATOM     10  C   UNL     1      -7.180  -0.704   1.121  0.00  0.00    +0.000 C 
ATOM     11  C   UNL     1      -7.251   0.092  -0.183  0.00  0.00    +0.000 C 
ATOM     12  C   UNL     1      -8.621   0.764  -0.297  0.00  0.00    +0.000 C 
ATOM     13  C   UNL     1      -7.048  -0.854  -1.369  0.00  0.00    +0.000 C 
ENDBRANCH   9  11
ENDBRANCH   7   9
ENDBRANCH   1   7
BRANCH   1  14
ATOM     14  C   UNL     1      -2.479   0.930   0.019  0.00  0.00    +0.000 C 
BRANCH  14  15
ATOM     15  N   UNL     1      -2.454   0.160   1.270  0.00  0.00    +0.000 N 
ATOM     16  H   UNL     1      -3.228  -0.520   1.271  0.00  0.00    +0.000 HD
ATOM     17  H   UNL     1      -2.560   0.800   2.070  0.00  0.00    +0.000 HD
ATOM     18  H   UNL     1      -1.558  -0.341   1.348  0.00  0.00    +0.000 HD
ENDBRANCH  14  15
BRANCH  14  19
ATOM     19  C   UNL     1      -1.329   1.940   0.019  0.00  0.00    +0.000 C 
BRANCH  19  20
ATOM     20  C   UNL     1      -0.014   1.204   0.009  0.00  0.00    +0.000 C 
ATOM     21  O   UNL     1       0.002  -0.004   0.002  0.00  0.00    +0.000 OA
ATOM     22  O   UNL     1       1.139   1.891   0.001  0.00  0.00    +0.000 OA
ENDBRANCH  19  20
ENDBRANCH  14  19
ENDBRANCH   1  14
TORSDOF 8
ENDMDL
MODEL      586
REMARK  Name = ZINC05760323
REMARK  10 active torsions:
REMARK  status: ('A' for Active; 'I' for Inactive)
REMARK    1  A    between atoms: C_1  and  C_2
REMARK    2  A    between atoms: C_2  and  C_3
REMARK    3  A    between atoms: C_2  and  N_4
REMARK    4  A    between atoms: N_4  and  C_5
REMARK    5  A    between atoms: C_11  and  C_13
REMARK    6  A    between atoms: C_13  and  S_14
REMARK    7  A    between atoms: S_14  and  C_15
REMARK    8  A    between atoms: C_15  and  C_16
REMARK    9  A    between atoms: C_16  and  C_17
REMARK   10  A    between atoms: C_16  and  N_20
REMARK                            x       y       z     vdW  Elec       q    Type
REMARK                         _______ _______ _______ _____ _____    ______ ____
ROOT
ATOM      1  N   UNK     1      -1.631  -1.904  -0.183  0.00  0.00    +0.000 N 
ATOM      2  C   UNK     1      -1.223  -0.645   0.076  0.00  0.00    +0.000 C 
ATOM      3  O   UNK     1      -2.039   0.243   0.199  0.00  0.00    +0.000 OA
ENDROOT
BRANCH   1   4
ATOM      4  C   UNK     1      -2.982  -2.162  -0.441  0.00  0.00    +0.000 A 
ATOM      5  C   UNK     1      -3.431  -3.471  -0.551  0.00  0.00    +0.000 A 
ATOM      6  C   UNK     1      -4.766  -3.723  -0.800  0.00  0.00    +0.000 A 
ATOM      7  C   UNK     1      -5.653  -2.672  -0.950  0.00  0.00    +0.000 A 
ATOM      8  C   UNK     1      -5.207  -1.367  -0.847  0.00  0.00    +0.000 A 
ATOM      9  C   UNK     1      -3.875  -1.109  -0.592  0.00  0.00    +0.000 A 
ENDBRANCH   1   4
BRANCH   1  11
ATOM     10  C   UNK     1      -0.959  -3.958   0.962  0.00  0.00    +0.000 C 
ATOM     11  C   UNK     1      -0.660  -3.001  -0.194  0.00  0.00    +0.000 C 
ATOM     12  C   UNK     1      -0.761  -3.756  -1.521  0.00  0.00    +0.000 C 
ENDBRANCH   1  11
BRANCH   2  13
ATOM     13  C   UNK     1       0.247  -0.343   0.213  0.00  0.00    +0.000 C 
BRANCH  13  14
ATOM     14  S   UNK     1       0.481   1.445   0.410  0.00  0.00    +0.000 S 
BRANCH  14  15
ATOM     15  C   UNK     1       2.279   1.638   0.560  0.00  0.00    +0.000 C 
BRANCH  15  16
ATOM     16  C   UNK     1       2.619   3.120   0.734  0.00  0.00    +0.000 C 
BRANCH  16  17
ATOM     17  N   UNK     1       2.149   3.896  -0.427  0.00  0.00    +0.000 N 
ATOM     18  H   UNK     1       1.129   3.786  -0.515  0.00  0.00    +0.000 HD
ATOM     19  H   UNK     1       2.604   3.536  -1.278  0.00  0.00    +0.000 HD
ATOM     20  H   UNK     1       2.382   4.891  -0.302  0.00  0.00    +0.000 HD
ENDBRANCH  16  17
BRANCH  16  21
ATOM     21  C   UNK     1       4.112   3.280   0.858  0.00  0.00    +0.000 C 
ATOM     22  O   UNK     1       4.764   3.628  -0.098  0.00  0.00    +0.000 OA
ATOM     23  O   UNK     1       4.718   3.038   2.031  0.00  0.00    +0.000 OA
ENDBRANCH  16  21
ENDBRANCH  15  16
ENDBRANCH  14  15
ENDBRANCH  13  14
ENDBRANCH   2  13
TORSDOF 8
ENDMDL
MODEL      587
REMARK  Name = ZINC05116227
REMARK  11 active torsions:
REMARK  status: ('A' for Active; 'I' for Inactive)
REMARK    1  A    between atoms: C_1  and  C_2
REMARK    2  A    between atoms: C_4  and  N_9
REMARK    3  A    between atoms: C_7  and  N_8
REMARK    4  A    between atoms: N_9  and  C_10
REMARK    5  A    between atoms: N_9  and  C_17
REMARK    6  A    between atoms: C_10  and  C_11
REMARK    7  A    between atoms: C_11  and  C_12
REMARK    8  A    between atoms: C_12  and  C_13
REMARK    9  A    between atoms: C_13  and  S_14
REMARK   10  A    between atoms: C_17  and  C_18
REMARK   11  A    between atoms: C_17  and  C_19
REMARK                            x       y       z     vdW  Elec       q    Type
REMARK                         _______ _______ _______ _____ _____    ______ ____
ROOT
ATOM      1  N   UNL     1      -0.698   1.558   1.213  0.00  0.00    +0.000 NA
ATOM      2  H   UNL     1      -0.454   2.277   0.517  0.00  0.00    +0.000 HD
ENDROOT
BRANCH   1   6
ATOM      3  C   UNL     1      -1.601  -3.108   2.470  0.00  0.00    +0.000 C 
ATOM      4  C   UNL     1      -1.753  -1.629   2.714  0.00  0.00    +0.000 A 
ATOM      5  C   UNL     1      -1.160  -0.723   1.857  0.00  0.00    +0.000 A 
ATOM      6  C   UNL     1      -1.301   0.640   2.082  0.00  0.00    +0.000 A 
ATOM      7  C   UNL     1      -2.034   1.092   3.171  0.00  0.00    +0.000 A 
ATOM      8  C   UNL     1      -2.631   0.186   4.025  0.00  0.00    +0.000 A 
ATOM      9  C   UNL     1      -2.491  -1.177   3.800  0.00  0.00    +0.000 A 
BRANCH   9  10
ATOM     10  N   UNL     1      -3.093  -2.095   4.668  0.00  0.00    +0.000 N 
ATOM     11  H   UNL     1      -2.988  -3.107   4.502  0.00  0.00    +0.000 HD
ATOM     12  H   UNL     1      -3.640  -1.760   5.474  0.00  0.00    +0.000 HD
ENDBRANCH   9  10
ENDBRANCH   1   6
BRANCH   1  13
ATOM     13  C   UNL     1      -0.027   1.087  -0.001  0.00  0.00    +0.000 C 
ATOM     14  C   UNL     1       1.415   1.598  -0.017  0.00  0.00    +0.000 C 
ATOM     15  C   UNL     1      -0.768   1.615  -1.231  0.00  0.00    +0.000 C 
ENDBRANCH   1  13
BRANCH   1  16
ATOM     16  C   UNL     1      -0.740   2.990   1.519  0.00  0.00    +0.000 C 
BRANCH  16  17
ATOM     17  C   UNL     1      -1.992   3.609   0.894  0.00  0.00    +0.000 C 
BRANCH  17  18
ATOM     18  C   UNL     1      -2.035   5.105   1.213  0.00  0.00    +0.000 C 
BRANCH  18  19
ATOM     19  C   UNL     1      -3.287   5.724   0.588  0.00  0.00    +0.000 C 
BRANCH  19  20
ATOM     20  S   UNL     1      -3.337   7.497   0.966  0.00  0.00    +0.000 S 
ATOM     21  O   UNL     1      -3.551   7.695   2.357  0.00  0.00    +0.000 OA
ATOM     22  O   UNL     1      -2.284   8.172   0.292  0.00  0.00    +0.000 OA
ATOM     23  O   UNL     1      -4.611   8.003   0.302  0.00  0.00    +0.000 OA
ENDBRANCH  19  20
ENDBRANCH  18  19
ENDBRANCH  17  18
ENDBRANCH  16  17
ENDBRANCH   1  16
TORSDOF 8
ENDMDL
MODEL      588
REMARK  Name = ZINC19752419
REMARK  10 active torsions:
REMARK  status: ('A' for Active; 'I' for Inactive)
REMARK    1  A    between atoms: C_1  and  C_2
REMARK    2  A    between atoms: C_2  and  C_3
REMARK    3  A    between atoms: C_3  and  C_4
REMARK    4  A    between atoms: C_3  and  N_21
REMARK    5  A    between atoms: C_8  and  O_19
REMARK    6  A    between atoms: C_9  and  O_17
REMARK    7  A    between atoms: N_12  and  C_13
REMARK    8  A    between atoms: C_13  and  C_14
REMARK    9  A    between atoms: O_17  and  C_18
REMARK   10  A    between atoms: O_19  and  C_20
REMARK                            x       y       z     vdW  Elec       q    Type
REMARK                         _______ _______ _______ _____ _____    ______ ____
ROOT
ATOM      1  C   UNL     1       3.244   2.573  -0.015  0.00  0.00    +0.000 A 
ATOM      2  N   UNL     1       2.454   3.606  -0.002  0.00  0.00    +0.000 NA
ATOM      3  C   UNL     1       1.160   3.192   0.008  0.00  0.00    +0.000 A 
ATOM      4  C   UNL     1      -0.065   3.866   0.023  0.00  0.00    +0.000 A 
ATOM      5  C   UNL     1      -1.242   3.148   0.031  0.00  0.00    +0.000 A 
ATOM      6  C   UNL     1      -1.217   1.752   0.017  0.00  0.00    +0.000 A 
ATOM      7  C   UNL     1      -0.013   1.076   0.008  0.00  0.00    +0.000 A 
ATOM      8  C   UNL     1       1.179   1.788   0.000  0.00  0.00    +0.000 A 
ATOM      9  N   UNL     1       2.513   1.425  -0.014  0.00  0.00    +0.000 N 
ENDROOT
BRANCH   6  10
ATOM     10  O   UNL     1      -2.385   1.054   0.019  0.00  0.00    +0.000 OA
ATOM     11  C   UNL     1      -2.289  -0.372   0.012  0.00  0.00    +0.000 C 
ENDBRANCH   6  10
BRANCH   5  12
ATOM     12  O   UNL     1      -2.434   3.803   0.045  0.00  0.00    +0.000 OA
ATOM     13  C   UNL     1      -2.389   5.232   0.051  0.00  0.00    +0.000 C 
ENDBRANCH   5  12
BRANCH   9  14
ATOM     14  C   UNL     1       3.042   0.059  -0.026  0.00  0.00    +0.000 C 
BRANCH  14  15
ATOM     15  C   UNL     1       3.210  -0.402  -1.450  0.00  0.00    +0.000 C 
ATOM     16  O   UNL     1       2.919   0.335  -2.362  0.00  0.00    +0.000 OA
ATOM     17  O   UNL     1       3.684  -1.632  -1.706  0.00  0.00    +0.000 OA
ENDBRANCH  14  15
ENDBRANCH   9  14
BRANCH   1  18
ATOM     18  C   UNL     1       4.750   2.638  -0.029  0.00  0.00    +0.000 C 
BRANCH  18  19
ATOM     19  N   UNL     1       5.207   3.633   0.950  0.00  0.00    +0.000 N 
ATOM     20  H   UNL     1       4.821   4.557   0.708  0.00  0.00    +0.000 HD
ATOM     21  H   UNL     1       6.236   3.678   0.941  0.00  0.00    +0.000 HD
ATOM     22  H   UNL     1       4.884   3.364   1.890  0.00  0.00    +0.000 HD
ENDBRANCH  18  19
BRANCH  18  24
ATOM     23  C   UNL     1       6.758   2.983  -1.475  0.00  0.00    +0.000 C 
ATOM     24  C   UNL     1       5.230   3.039  -1.425  0.00  0.00    +0.000 C 
ENDBRANCH  18  24
ENDBRANCH   1  18
TORSDOF 7
ENDMDL
MODEL      589
REMARK  Name = ZINC05396591
REMARK  8 active torsions:
REMARK  status: ('A' for Active; 'I' for Inactive)
REMARK    1  A    between atoms: C_1  and  C_2
REMARK    2  A    between atoms: C_2  and  N_18
REMARK    3  A    between atoms: C_3  and  C_4
REMARK    4  A    between atoms: C_3  and  N_18
REMARK    5  A    between atoms: C_5  and  C_6
REMARK    6  A    between atoms: C_5  and  N_18
REMARK    7  A    between atoms: C_6  and  N_7
REMARK    8  A    between atoms: C_8  and  C_10
REMARK                            x       y       z     vdW  Elec       q    Type
REMARK                         _______ _______ _______ _____ _____    ______ ____
ROOT
ATOM      1  N   UNL     1      -1.008  -0.937  -1.109  0.00  0.00    +0.000 N 
ATOM      2  C   UNL     1       0.180  -0.352  -1.360  0.00  0.00    +0.000 C 
ATOM      3  O   UNL     1       1.207  -0.996  -1.264  0.00  0.00    +0.000 OA
ATOM      4  H   UNL     1      -1.878  -0.392  -1.190  0.00  0.00    +0.000 HD
ENDROOT
BRANCH   2   5
ATOM      5  C   UNL     1       0.233   1.066  -1.751  0.00  0.00    +0.000 A 
ATOM      6  C   UNL     1       1.367   1.805  -2.041  0.00  0.00    +0.000 A 
ATOM      7  C   UNL     1       0.904   3.085  -2.354  0.00  0.00    +0.000 A 
ATOM      8  N   UNL     1      -0.401   3.076  -2.251  0.00  0.00    +0.000 NA
ATOM      9  N   UNL     1      -0.826   1.914  -1.907  0.00  0.00    +0.000 N 
ATOM     10  N   UNL     1       1.740   4.245  -2.736  0.00  0.00    +0.000 N 
ATOM     11  O   UNL     1       2.951   4.129  -2.799  0.00  0.00    +0.000 OA
ATOM     12  O   UNL     1       1.217   5.316  -2.988  0.00  0.00    +0.000 OA
ATOM     13  H   UNL     1      -1.815   1.660  -1.770  0.00  0.00    +0.000 HD
ENDBRANCH   2   5
BRANCH   1  14
ATOM     14  C   UNL     1      -1.062  -2.348  -0.719  0.00  0.00    +0.000 C 
BRANCH  14  15
ATOM     15  C   UNL     1      -2.518  -2.761  -0.494  0.00  0.00    +0.000 C 
BRANCH  15  16
ATOM     16  N   UNL     1      -2.556  -4.191  -0.123  0.00  0.00    +0.000 N 
ATOM     17  H   UNL     1      -2.024  -4.732  -0.819  0.00  0.00    +0.000 HD
BRANCH  16  18
ATOM     18  C   UNL     1      -3.954  -4.671  -0.109  0.00  0.00    +0.000 C 
ATOM     19  C   UNL     1      -3.948  -6.201  -0.088  0.00  0.00    +0.000 C 
ENDBRANCH  16  18
BRANCH  16  21
ATOM     20  C   UNL     1      -2.692  -3.575   2.267  0.00  0.00    +0.000 C 
ATOM     21  C   UNL     1      -1.942  -4.384   1.207  0.00  0.00    +0.000 C 
ENDBRANCH  16  21
ENDBRANCH  15  16
ENDBRANCH  14  15
ENDBRANCH   1  14
TORSDOF 6
ENDMDL
MODEL      590
REMARK  Name = ZINC04845008
REMARK  4 active torsions:
REMARK  status: ('A' for Active; 'I' for Inactive)
REMARK    1  A    between atoms: C_1  and  O_2
REMARK    2  A    between atoms: O_2  and  C_3
REMARK    3  A    between atoms: C_3  and  C_4
REMARK    4  A    between atoms: N_13  and  C_14
REMARK                            x       y       z     vdW  Elec       q    Type
REMARK                         _______ _______ _______ _____ _____    ______ ____
ROOT
ATOM      1  C   UNL     1       2.755   3.149  -3.146  0.00  0.00    +0.000 A 
ATOM      2  C   UNL     1       2.478   4.427  -2.809  0.00  0.00    +0.000 A 
ATOM      3  C   UNL     1       1.314   4.696  -2.044  0.00  0.00    +0.000 A 
ATOM      4  O   UNL     1       1.040   5.843  -1.724  0.00  0.00    +0.000 OA
ATOM      5  N   UNL     1       0.518   3.683  -1.673  0.00  0.00    +0.000 NA
ATOM      6  C   UNL     1       0.805   2.444  -2.012  0.00  0.00    +0.000 A 
ATOM      7  N   UNL     1       1.915   2.154  -2.740  0.00  0.00    +0.000 NA
ATOM      8  N   UNL     1      -0.029   1.426  -1.619  0.00  0.00    +0.000 N 
ATOM      9  C   UNL     1      -1.096   1.692  -0.785  0.00  0.00    +0.000 C 
ATOM     10  N   UNL     1      -1.898   0.663  -0.343  0.00  0.00    +0.000 N 
ATOM     11  N   UNL     1      -1.300   2.957  -0.451  0.00  0.00    +0.000 N 
ATOM     12  H   UNL     1       0.141   0.464  -1.946  0.00  0.00    +0.000 HD
ATOM     13  H   UNL     1      -2.747   0.870   0.201  0.00  0.00    +0.000 HD
ATOM     14  H   UNL     1      -0.695   3.718  -0.791  0.00  0.00    +0.000 HD
ATOM     15  H   UNL     1      -2.090   3.179   0.171  0.00  0.00    +0.000 HD
ENDROOT
BRANCH  10  16
ATOM     16  C   UNL     1      -1.558  -0.662  -0.634  0.00  0.00    +0.000 A 
ATOM     17  C   UNL     1      -0.223  -1.034  -0.728  0.00  0.00    +0.000 A 
ATOM     18  C   UNL     1       0.110  -2.344  -1.010  0.00  0.00    +0.000 A 
ATOM     19  C   UNL     1      -0.885  -3.284  -1.210  0.00  0.00    +0.000 A 
ATOM     20  C   UNL     1      -2.216  -2.916  -1.123  0.00  0.00    +0.000 A 
ATOM     21  C   UNL     1      -2.555  -1.607  -0.836  0.00  0.00    +0.000 A 
ATOM     22 CL   UNL     1      -3.461  -4.099  -1.377  0.00  0.00    +0.000 Cl
ENDBRANCH  10  16
BRANCH   1  23
ATOM     23  C   UNL     1       3.983   2.826  -3.958  0.00  0.00    +0.000 C 
BRANCH  23  25
ATOM     24  C   UNL     1       5.881   3.835  -5.019  0.00  0.00    +0.000 C 
ATOM     25  O   UNL     1       4.693   4.031  -4.249  0.00  0.00    +0.000 OA
ENDBRANCH  23  25
ENDBRANCH   1  23
TORSDOF 3
ENDMDL
MODEL      591
REMARK  Name = ZINC04226230
REMARK  8 active torsions:
REMARK  status: ('A' for Active; 'I' for Inactive)
REMARK    1  A    between atoms: C_1  and  O_2
REMARK    2  A    between atoms: O_2  and  C_3
REMARK    3  A    between atoms: C_9  and  N_14
REMARK    4  A    between atoms: C_10  and  C_12
REMARK    5  A    between atoms: N_14  and  C_15
REMARK    6  A    between atoms: C_15  and  C_16
REMARK    7  A    between atoms: C_16  and  C_17
REMARK    8  A    between atoms: C_17  and  O_18
REMARK                            x       y       z     vdW  Elec       q    Type
REMARK                         _______ _______ _______ _____ _____    ______ ____
ROOT
ATOM      1  C   UNL     1      -1.149   3.275  -0.678  0.00  0.00    +0.000 A 
ATOM      2  C   UNL     1      -1.163   1.879  -0.664  0.00  0.00    +0.000 A 
ATOM      3  C   UNL     1      -0.025   1.169  -0.433  0.00  0.00    +0.000 A 
ATOM      4  C   UNL     1       1.190   1.840  -0.215  0.00  0.00    +0.000 A 
ATOM      5  C   UNL     1       1.210   3.255  -0.233  0.00  0.00    +0.000 A 
ATOM      6  C   UNL     1       0.024   3.965  -0.468  0.00  0.00    +0.000 A 
ATOM      7  C   UNL     1       2.435   3.929  -0.013  0.00  0.00    +0.000 A 
ATOM      8  C   UNL     1       3.579   3.149   0.214  0.00  0.00    +0.000 A 
ATOM      9  C   UNL     1       3.465   1.748   0.215  0.00  0.00    +0.000 A 
ATOM     10  N   UNL     1       2.317   1.071   0.009  0.00  0.00    +0.000 N 
ATOM     11  H   UNL     1       2.282   0.041   0.018  0.00  0.00    +0.000 HD
ENDROOT
BRANCH   8  12
ATOM     12  C   UNL     1       4.881   3.789   0.449  0.00  0.00    +0.000 C 
ATOM     13  O   UNL     1       4.957   4.999   0.536  0.00  0.00    +0.000 OA
ATOM     14  O   UNL     1       5.992   3.035   0.567  0.00  0.00    +0.000 OA
ENDBRANCH   8  12
BRANCH   1  16
ATOM     15  C   UNL     1      -3.485   3.185  -1.118  0.00  0.00    +0.000 C 
ATOM     16  O   UNL     1      -2.302   3.959  -0.907  0.00  0.00    +0.000 OA
ENDBRANCH   1  16
BRANCH   7  17
ATOM     17  N   UNL     1       2.502   5.305  -0.022  0.00  0.00    +0.000 N 
ATOM     18  H   UNL     1       2.466   5.896   0.820  0.00  0.00    +0.000 HD
BRANCH  17  19
ATOM     19  C   UNL     1       2.632   5.816  -1.393  0.00  0.00    +0.000 C 
BRANCH  19  20
ATOM     20  C   UNL     1       2.832   7.333  -1.355  0.00  0.00    +0.000 C 
BRANCH  20  21
ATOM     21  C   UNL     1       2.967   7.866  -2.783  0.00  0.00    +0.000 C 
BRANCH  21  22
ATOM     22  O   UNL     1       3.154   9.282  -2.747  0.00  0.00    +0.000 OA
ATOM     23  H   UNL     1       3.975   9.495  -2.237  0.00  0.00    +0.000 HD
ENDBRANCH  21  22
ENDBRANCH  20  21
ENDBRANCH  19  20
ENDBRANCH  17  19
ENDBRANCH   7  17
TORSDOF 7
ENDMDL
MODEL      592
REMARK  Name = ZINC20341969
REMARK  11 active torsions:
REMARK  status: ('A' for Active; 'I' for Inactive)
REMARK    1  A    between atoms: C_1  and  C_2
REMARK    2  A    between atoms: C_2  and  N_3
REMARK    3  A    between atoms: N_3  and  C_4
REMARK    4  A    between atoms: N_3  and  C_7
REMARK    5  A    between atoms: C_4  and  C_5
REMARK    6  A    between atoms: C_5  and  O_6
REMARK    7  A    between atoms: C_7  and  C_8
REMARK    8  A    between atoms: N_10  and  C_11
REMARK    9  A    between atoms: C_12  and  C_18
REMARK   10  A    between atoms: C_13  and  C_17
REMARK   11  A    between atoms: C_14  and  C_16
REMARK                            x       y       z     vdW  Elec       q    Type
REMARK                         _______ _______ _______ _____ _____    ______ ____
ROOT
ATOM      1  C   UNL     1       3.340   0.222  -3.549  0.00  0.00    +0.000 C 
ATOM      2  O   UNL     1       4.383  -0.364  -3.349  0.00  0.00    +0.000 OA
ATOM      3  N   UNL     1       2.598   0.652  -2.510  0.00  0.00    +0.000 N 
ATOM      4  H   UNL     1       1.712   1.149  -2.680  0.00  0.00    +0.000 HD
ENDROOT
BRANCH   3   5
ATOM      5  C   UNL     1       3.027   0.425  -1.211  0.00  0.00    +0.000 A 
ATOM      6  C   UNL     1       2.407   0.788  -0.020  0.00  0.00    +0.000 A 
ATOM      7  C   UNL     1       3.080   0.416   1.202  0.00  0.00    +0.000 A 
ATOM      8  C   UNL     1       4.247  -0.243   1.084  0.00  0.00    +0.000 A 
ATOM      9  S   UNL     1       4.466  -0.377  -0.678  0.00  0.00    +0.000 S 
ATOM     10  C   UNL     1       5.151  -0.746   2.179  0.00  0.00    +0.000 C 
ATOM     11  C   UNL     1       2.500   0.751   2.551  0.00  0.00    +0.000 C 
BRANCH   6  12
ATOM     12  C   UNL     1       1.131   1.508  -0.006  0.00  0.00    +0.000 C 
ATOM     13  O   UNL     1       1.119   2.724  -0.006  0.00  0.00    +0.000 OA
ATOM     14  O   UNL     1      -0.030   0.821   0.006  0.00  0.00    +0.000 OA
ENDBRANCH   6  12
ENDBRANCH   3   5
BRANCH   1  15
ATOM     15  C   UNL     1       2.874   0.468  -4.961  0.00  0.00    +0.000 C 
BRANCH  15  16
ATOM     16  N   UNL     1       3.893  -0.011  -5.904  0.00  0.00    +0.000 NA
BRANCH  16  18
ATOM     17  C   UNL     1       4.242   2.054  -7.173  0.00  0.00    +0.000 C 
ATOM     18  C   UNL     1       3.726   0.615  -7.223  0.00  0.00    +0.000 C 
ENDBRANCH  16  18
BRANCH  16  19
ATOM     19  C   UNL     1       3.866  -1.476  -6.009  0.00  0.00    +0.000 C 
BRANCH  19  20
ATOM     20  C   UNL     1       5.088  -1.954  -6.796  0.00  0.00    +0.000 C 
BRANCH  20  21
ATOM     21  O   UNL     1       6.276  -1.649  -6.063  0.00  0.00    +0.000 OA
ATOM     22  H   UNL     1       6.249  -2.108  -5.185  0.00  0.00    +0.000 HD
ENDBRANCH  20  21
ENDBRANCH  19  20
ENDBRANCH  16  19
ENDBRANCH  15  16
ENDBRANCH   1  15
TORSDOF 8
ENDMDL
MODEL      593
REMARK  Name = ZINC20327376
REMARK  11 active torsions:
REMARK  status: ('A' for Active; 'I' for Inactive)
REMARK    1  A    between atoms: C_1  and  C_2
REMARK    2  A    between atoms: C_2  and  C_3
REMARK    3  A    between atoms: C_3  and  C_4
REMARK    4  A    between atoms: C_4  and  N_5
REMARK    5  A    between atoms: C_14  and  C_15
REMARK    6  A    between atoms: C_14  and  N_16
REMARK    7  A    between atoms: N_16  and  C_17
REMARK    8  A    between atoms: C_17  and  C_18
REMARK    9  A    between atoms: C_18  and  N_19
REMARK   10  A    between atoms: N_19  and  C_20
REMARK   11  A    between atoms: N_19  and  C_21
REMARK                            x       y       z     vdW  Elec       q    Type
REMARK                         _______ _______ _______ _____ _____    ______ ____
ROOT
ATOM      1  N   UNL     1      -2.713  -1.270   1.197  0.00  0.00    +0.000 N 
ATOM      2  C   UNL     1      -2.585   0.066   1.302  0.00  0.00    +0.000 C 
ATOM      3  O   UNL     1      -2.528   0.604   2.387  0.00  0.00    +0.000 OA
ATOM      4  C   UNL     1      -2.518   0.873   0.019  0.00  0.00    +0.000 C 
ATOM      5  C   UNL     1      -2.597   0.080  -1.272  0.00  0.00    +0.000 C 
ATOM      6  O   UNL     1      -2.551   0.630  -2.352  0.00  0.00    +0.000 OA
ATOM      7  N   UNL     1      -2.722  -1.261  -1.174  0.00  0.00    +0.000 N 
ATOM      8  C   UNL     1      -2.775  -1.883   0.009  0.00  0.00    +0.000 C 
ATOM      9  O   UNL     1      -2.888  -3.092   0.005  0.00  0.00    +0.000 OA
ATOM     10  C   UNL     1      -1.223   1.644   0.017  0.00  0.00    +0.000 C 
ATOM     11  C   UNL     1      -1.241   2.964   0.024  0.00  0.00    +0.000 C 
ATOM     12  H   UNL     1      -2.777  -1.821  -2.037  0.00  0.00    +0.000 HD
ENDROOT
BRANCH  10  13
ATOM     13  N   UNL     1      -0.011   0.966   0.007  0.00  0.00    +0.000 N 
ATOM     14  H   UNL     1       0.003  -0.064   0.002  0.00  0.00    +0.000 HD
BRANCH  13  15
ATOM     15  C   UNL     1       1.248   1.716   0.005  0.00  0.00    +0.000 C 
BRANCH  15  16
ATOM     16  C   UNL     1       2.424   0.737  -0.012  0.00  0.00    +0.000 C 
BRANCH  16  17
ATOM     17  N   UNL     1       3.686   1.489  -0.014  0.00  0.00    +0.000 N 
ATOM     18  C   UNL     1       3.862   2.225   1.245  0.00  0.00    +0.000 C 
ATOM     19  C   UNL     1       4.827   0.600  -0.269  0.00  0.00    +0.000 C 
ATOM     20  H   UNL     1       3.643   2.177  -0.779  0.00  0.00    +0.000 HD
ENDBRANCH  16  17
ENDBRANCH  15  16
ENDBRANCH  13  15
ENDBRANCH  10  13
BRANCH   1  21
ATOM     21  C   UNL     1      -2.784  -2.077   2.417  0.00  0.00    +0.000 C 
BRANCH  21  22
ATOM     22  C   UNL     1      -1.372  -2.492   2.837  0.00  0.00    +0.000 C 
BRANCH  22  24
ATOM     23  C   UNL     1      -0.033  -3.749   4.530  0.00  0.00    +0.000 C 
ATOM     24  C   UNL     1      -1.445  -3.335   4.111  0.00  0.00    +0.000 C 
ENDBRANCH  22  24
ENDBRANCH  21  22
ENDBRANCH   1  21
TORSDOF 7
ENDMDL
MODEL      594
REMARK  Name = ZINC20306535
REMARK  9 active torsions:
REMARK  status: ('A' for Active; 'I' for Inactive)
REMARK    1  A    between atoms: C_1  and  O_2
REMARK    2  A    between atoms: O_2  and  C_3
REMARK    3  A    between atoms: C_3  and  C_5
REMARK    4  A    between atoms: C_8  and  C_11
REMARK    5  A    between atoms: C_11  and  S_12
REMARK    6  A    between atoms: S_12  and  C_13
REMARK    7  A    between atoms: C_13  and  C_14
REMARK    8  A    between atoms: C_14  and  C_15
REMARK    9  A    between atoms: C_14  and  N_18
REMARK                            x       y       z     vdW  Elec       q    Type
REMARK                         _______ _______ _______ _____ _____    ______ ____
ROOT
ATOM      1  C   UNK     1      -0.013   1.086   0.008  0.00  0.00    +0.000 C 
ENDROOT
BRANCH   1   5
ATOM      2  C   UNK     1      -2.014   2.465   3.527  0.00  0.00    +0.000 A 
ATOM      3  C   UNK     1      -2.369   1.243   2.951  0.00  0.00    +0.000 A 
ATOM      4  C   UNK     1      -1.720   0.805   1.816  0.00  0.00    +0.000 A 
ATOM      5  C   UNK     1      -0.718   1.572   1.248  0.00  0.00    +0.000 A 
ATOM      6  C   UNK     1      -0.357   2.780   1.817  0.00  0.00    +0.000 A 
ATOM      7  C   UNK     1      -1.002   3.234   2.949  0.00  0.00    +0.000 A 
BRANCH   2   8
ATOM      8  C   UNK     1      -2.705   2.941   4.742  0.00  0.00    +0.000 C 
ATOM      9  O   UNK     1      -3.585   2.270   5.243  0.00  0.00    +0.000 OA
BRANCH   8  11
ATOM     10  C   UNK     1      -3.081   4.524   6.489  0.00  0.00    +0.000 C 
ATOM     11  O   UNK     1      -2.360   4.120   5.296  0.00  0.00    +0.000 OA
ENDBRANCH   8  11
ENDBRANCH   2   8
ENDBRANCH   1   5
BRANCH   1  12
ATOM     12  S   UNK     1      -0.890   1.687  -1.462  0.00  0.00    +0.000 S 
BRANCH  12  13
ATOM     13  C   UNK     1       0.072   1.024  -2.849  0.00  0.00    +0.000 C 
BRANCH  13  14
ATOM     14  C   UNK     1      -0.567   1.461  -4.168  0.00  0.00    +0.000 C 
BRANCH  14  15
ATOM     15  N   UNK     1      -1.942   0.951  -4.239  0.00  0.00    +0.000 N 
ATOM     16  H   UNK     1      -2.490   1.327  -3.451  0.00  0.00    +0.000 HD
ATOM     17  H   UNK     1      -1.931  -0.077  -4.188  0.00  0.00    +0.000 HD
ATOM     18  H   UNK     1      -2.373   1.245  -5.127  0.00  0.00    +0.000 HD
ENDBRANCH  14  15
BRANCH  14  19
ATOM     19  C   UNK     1       0.233   0.911  -5.321  0.00  0.00    +0.000 C 
ATOM     20  O   UNK     1      -0.145  -0.081  -5.899  0.00  0.00    +0.000 OA
ATOM     21  O   UNK     1       1.365   1.522  -5.705  0.00  0.00    +0.000 OA
ENDBRANCH  14  19
ENDBRANCH  13  14
ENDBRANCH  12  13
ENDBRANCH   1  12
TORSDOF 8
ENDMDL
MODEL      595
REMARK  Name = ZINC21302584
REMARK  11 active torsions:
REMARK  status: ('A' for Active; 'I' for Inactive)
REMARK    1  A    between atoms: C_1  and  C_2
REMARK    2  A    between atoms: C_2  and  C_3
REMARK    3  A    between atoms: C_2  and  C_4
REMARK    4  A    between atoms: C_2  and  O_5
REMARK    5  A    between atoms: O_5  and  C_6
REMARK    6  A    between atoms: C_6  and  C_8
REMARK    7  A    between atoms: C_8  and  C_9
REMARK    8  A    between atoms: C_8  and  C_16
REMARK    9  A    between atoms: C_16  and  C_17
REMARK   10  A    between atoms: C_16  and  N_21
REMARK   11  A    between atoms: C_17  and  C_18
REMARK                            x       y       z     vdW  Elec       q    Type
REMARK                         _______ _______ _______ _____ _____    ______ ____
ROOT
ATOM      1  C   UNL     1      -0.120   1.135  -2.436  0.00  0.00    +0.000 C 
ENDROOT
BRANCH   1   2
ATOM      2  C   UNL     1      -0.041  -0.367  -2.531  0.00  0.00    +0.000 A 
ATOM      3  C   UNL     1       1.189  -0.989  -2.639  0.00  0.00    +0.000 A 
ATOM      4  C   UNL     1       1.263  -2.366  -2.728  0.00  0.00    +0.000 A 
ATOM      5  C   UNL     1       0.107  -3.124  -2.708  0.00  0.00    +0.000 A 
ATOM      6  C   UNL     1      -1.125  -2.502  -2.599  0.00  0.00    +0.000 A 
ATOM      7  C   UNL     1      -1.198  -1.123  -2.506  0.00  0.00    +0.000 A 
ATOM      8  F   UNL     1      -2.256  -3.242  -2.580  0.00  0.00    +0.000 F 
ENDBRANCH   1   2
BRANCH   1   9
ATOM      9  C   UNL     1      -0.924   1.670  -3.592  0.00  0.00    +0.000 C 
ATOM     10  O   UNL     1      -1.934   2.301  -3.385  0.00  0.00    +0.000 OA
BRANCH   9  11
ATOM     11  O   UNL     1      -0.519   1.447  -4.852  0.00  0.00    +0.000 OA
BRANCH  11  13
ATOM     12  C   UNL     1      -1.419   3.514  -5.773  0.00  0.00    +0.000 C 
ATOM     13  C   UNL     1      -1.343   1.992  -5.916  0.00  0.00    +0.000 C 
ATOM     14  C   UNL     1      -0.726   1.638  -7.271  0.00  0.00    +0.000 C 
ATOM     15  C   UNL     1      -2.751   1.400  -5.826  0.00  0.00    +0.000 C 
ENDBRANCH  11  13
ENDBRANCH   9  11
ENDBRANCH   1   9
BRANCH   1  16
ATOM     16  C   UNL     1      -0.795   1.527  -1.120  0.00  0.00    +0.000 C 
BRANCH  16  17
ATOM     17  N   UNL     1      -0.012   1.005   0.008  0.00  0.00    +0.000 N 
ATOM     18  H   UNL     1       0.939   1.401  -0.021  0.00  0.00    +0.000 HD
ATOM     19  H   UNL     1       0.043  -0.022  -0.057  0.00  0.00    +0.000 HD
ATOM     20  H   UNL     1      -0.466   1.268   0.894  0.00  0.00    +0.000 HD
ENDBRANCH  16  17
BRANCH  16  21
ATOM     21  C   UNL     1      -0.876   3.052  -1.022  0.00  0.00    +0.000 C 
BRANCH  21  22
ATOM     22  C   UNL     1      -1.649   3.436   0.213  0.00  0.00    +0.000 C 
ATOM     23  O   UNL     1      -2.090   2.579   0.940  0.00  0.00    +0.000 OA
ATOM     24  O   UNL     1      -1.847   4.731   0.504  0.00  0.00    +0.000 OA
ENDBRANCH  21  22
ENDBRANCH  16  21
ENDBRANCH   1  16
TORSDOF 8
ENDMDL
MODEL      596
REMARK  Name = ZINC03677371
REMARK  10 active torsions:
REMARK  status: ('A' for Active; 'I' for Inactive)
REMARK    1  A    between atoms: C_1  and  C_2
REMARK    2  A    between atoms: C_2  and  O_3
REMARK    3  A    between atoms: O_3  and  C_4
REMARK    4  A    between atoms: C_7  and  C_13
REMARK    5  A    between atoms: C_8  and  O_10
REMARK    6  A    between atoms: O_10  and  C_11
REMARK    7  A    between atoms: C_11  and  C_12
REMARK    8  A    between atoms: C_13  and  C_14
REMARK    9  A    between atoms: C_13  and  C_17
REMARK   10  A    between atoms: C_13  and  N_20
REMARK                            x       y       z     vdW  Elec       q    Type
REMARK                         _______ _______ _______ _____ _____    ______ ____
ROOT
ATOM      1  C   UNL     1       1.185   2.058   0.002  0.00  0.00    +0.000 A 
ATOM      2  C   UNL     1       2.360   1.319  -0.008  0.00  0.00    +0.000 A 
ATOM      3  C   UNL     1       3.582   1.962  -0.022  0.00  0.00    +0.000 A 
ATOM      4  C   UNL     1       3.639   3.343  -0.015  0.00  0.00    +0.000 A 
ATOM      5  C   UNL     1       2.468   4.087   0.000  0.00  0.00    +0.000 A 
ATOM      6  C   UNL     1       1.239   3.443   0.009  0.00  0.00    +0.000 A 
ENDROOT
BRANCH   4   7
ATOM      7  C   UNL     1       4.974   4.041  -0.024  0.00  0.00    +0.000 C 
BRANCH   7   8
ATOM      8  N   UNL     1       6.070   3.057  -0.041  0.00  0.00    +0.000 N 
ATOM      9  H   UNL     1       5.984   2.470  -0.883  0.00  0.00    +0.000 HD
ATOM     10  H   UNL     1       6.000   2.460   0.796  0.00  0.00    +0.000 HD
ATOM     11  H   UNL     1       6.979   3.542  -0.047  0.00  0.00    +0.000 HD
ENDBRANCH   7   8
BRANCH   7  12
ATOM     12  C   UNL     1       5.102   4.897   1.210  0.00  0.00    +0.000 C 
ATOM     13  O   UNL     1       4.813   6.069   1.165  0.00  0.00    +0.000 OA
ATOM     14  O   UNL     1       5.537   4.357   2.359  0.00  0.00    +0.000 OA
ENDBRANCH   7  12
BRANCH   7  15
ATOM     15  C   UNL     1       5.080   4.924  -1.270  0.00  0.00    +0.000 C 
ATOM     16  C   UNL     1       6.081   4.505  -2.349  0.00  0.00    +0.000 C 
ATOM     17  C   UNL     1       6.372   5.720  -1.464  0.00  0.00    +0.000 C 
ENDBRANCH   7  15
ENDBRANCH   4   7
BRANCH   5  18
ATOM     18  O   UNL     1       2.524   5.444   0.007  0.00  0.00    +0.000 OA
BRANCH  18  19
ATOM     19  C   UNL     1       1.279   6.145   0.022  0.00  0.00    +0.000 C 
ATOM     20  C   UNL     1       1.543   7.653   0.027  0.00  0.00    +0.000 C 
ENDBRANCH  18  19
ENDBRANCH   5  18
BRANCH   1  21
ATOM     21  O   UNL     1      -0.017   1.425   0.010  0.00  0.00    +0.000 OA
BRANCH  21  23
ATOM     22  C   UNL     1      -1.433  -0.534   0.013  0.00  0.00    +0.000 C 
ATOM     23  C   UNL     1       0.002  -0.004   0.002  0.00  0.00    +0.000 C 
ENDBRANCH  21  23
ENDBRANCH   1  21
TORSDOF 8
ENDMDL
MODEL      597
REMARK  Name = ZINC20199200
REMARK  10 active torsions:
REMARK  status: ('A' for Active; 'I' for Inactive)
REMARK    1  A    between atoms: C_1  and  N_2
REMARK    2  A    between atoms: C_4  and  C_11
REMARK    3  A    between atoms: N_7  and  C_10
REMARK    4  A    between atoms: C_11  and  N_12
REMARK    5  A    between atoms: N_12  and  C_13
REMARK    6  A    between atoms: C_13  and  C_14
REMARK    7  A    between atoms: C_14  and  O_15
REMARK    8  A    between atoms: O_15  and  C_16
REMARK    9  A    between atoms: C_16  and  C_17
REMARK   10  A    between atoms: C_17  and  O_18
REMARK                            x       y       z     vdW  Elec       q    Type
REMARK                         _______ _______ _______ _____ _____    ______ ____
ROOT
ATOM      1  C   UNL     1      -0.795   1.527  -1.120  0.00  0.00    +0.000 C 
ENDROOT
BRANCH   1   5
ATOM      2  C   UNL     1      -5.540   1.820   0.190  0.00  0.00    +0.000 C 
ATOM      3  N   UNL     1      -4.448   1.084  -0.453  0.00  0.00    +0.000 N 
ATOM      4  C   UNL     1      -3.191   1.623  -0.479  0.00  0.00    +0.000 A 
ATOM      5  C   UNL     1      -2.186   0.947  -1.076  0.00  0.00    +0.000 A 
ATOM      6  C   UNL     1      -2.454  -0.317  -1.656  0.00  0.00    +0.000 A 
ATOM      7  O   UNL     1      -1.563  -0.947  -2.195  0.00  0.00    +0.000 OA
ATOM      8  N   UNL     1      -3.706  -0.816  -1.604  0.00  0.00    +0.000 N 
ATOM      9  C   UNL     1      -4.690  -0.118  -1.007  0.00  0.00    +0.000 A 
ATOM     10  O   UNL     1      -5.814  -0.580  -0.969  0.00  0.00    +0.000 OA
ATOM     11  C   UNL     1      -3.996  -2.122  -2.200  0.00  0.00    +0.000 C 
ENDBRANCH   1   5
BRANCH   1  12
ATOM     12  N   UNL     1      -0.012   1.005   0.008  0.00  0.00    +0.000 N 
ATOM     13  H   UNL     1      -0.473   1.263   0.891  0.00  0.00    +0.000 HD
ATOM     14  H   UNL     1       0.033  -0.022  -0.056  0.00  0.00    +0.000 HD
BRANCH  12  15
ATOM     15  C   UNL     1       1.353   1.550  -0.003  0.00  0.00    +0.000 C 
BRANCH  15  16
ATOM     16  C   UNL     1       2.136   0.985   1.184  0.00  0.00    +0.000 C 
BRANCH  16  17
ATOM     17  O   UNL     1       2.292  -0.427   1.022  0.00  0.00    +0.000 OA
BRANCH  17  18
ATOM     18  C   UNL     1       3.014  -1.057   2.082  0.00  0.00    +0.000 C 
BRANCH  18  19
ATOM     19  C   UNL     1       3.120  -2.558   1.806  0.00  0.00    +0.000 C 
BRANCH  19  20
ATOM     20  O   UNL     1       3.906  -2.772   0.633  0.00  0.00    +0.000 OA
ATOM     21  H   UNL     1       4.813  -2.398   0.769  0.00  0.00    +0.000 HD
ENDBRANCH  19  20
ENDBRANCH  18  19
ENDBRANCH  17  18
ENDBRANCH  16  17
ENDBRANCH  15  16
ENDBRANCH  12  15
ENDBRANCH   1  12
TORSDOF 8
ENDMDL
MODEL      598
REMARK  Name = ZINC11960057
REMARK  9 active torsions:
REMARK  status: ('A' for Active; 'I' for Inactive)
REMARK    1  A    between atoms: C_1  and  N_16
REMARK    2  A    between atoms: C_2  and  C_3
REMARK    3  A    between atoms: C_2  and  N_16
REMARK    4  A    between atoms: C_3  and  O_4
REMARK    5  A    between atoms: C_5  and  C_6
REMARK    6  A    between atoms: C_5  and  N_16
REMARK    7  A    between atoms: C_6  and  O_7
REMARK    8  A    between atoms: O_7  and  C_8
REMARK    9  A    between atoms: C_11  and  C_14
REMARK                            x       y       z     vdW  Elec       q    Type
REMARK                         _______ _______ _______ _____ _____    ______ ____
ROOT
ATOM      1  O   UNL     1       0.809   3.482   0.130  0.00  0.00    +0.000 OA
ENDROOT
BRANCH   1   2
ATOM      2  C   UNL     1       0.691   2.131   0.127  0.00  0.00    +0.000 A 
ATOM      3  C   UNL     1      -0.569   1.544   0.141  0.00  0.00    +0.000 A 
ATOM      4  C   UNL     1      -0.693   0.173   0.138  0.00  0.00    +0.000 A 
ATOM      5  C   UNL     1       0.451  -0.630   0.121  0.00  0.00    +0.000 A 
ATOM      6  C   UNL     1       1.717  -0.036   0.107  0.00  0.00    +0.000 A 
ATOM      7  C   UNL     1       1.831   1.336   0.110  0.00  0.00    +0.000 A 
BRANCH   5   8
ATOM      8  C   UNL     1       0.323  -2.099   0.118  0.00  0.00    +0.000 C 
ATOM      9  O   UNL     1      -0.778  -2.613   0.131  0.00  0.00    +0.000 OA
ATOM     10  O   UNL     1       1.427  -2.871   0.101  0.00  0.00    +0.000 OA
ENDBRANCH   5   8
ENDBRANCH   1   2
BRANCH   1  11
ATOM     11  C   UNL     1       2.134   4.018   0.116  0.00  0.00    +0.000 C 
BRANCH  11  12
ATOM     12  C   UNL     1       2.065   5.547   0.122  0.00  0.00    +0.000 C 
BRANCH  12  14
ATOM     13  C   UNL     1       2.352   5.690   2.522  0.00  0.00    +0.000 C 
ATOM     14  N   UNL     1       1.450   5.992   1.390  0.00  0.00    +0.000 N 
ATOM     15  H   UNL     1       0.562   5.487   1.526  0.00  0.00    +0.000 HD
BRANCH  14  16
ATOM     16  C   UNL     1       1.174   7.443   1.336  0.00  0.00    +0.000 C 
BRANCH  16  17
ATOM     17  C   UNL     1      -0.084   7.672   0.496  0.00  0.00    +0.000 C 
BRANCH  17  18
ATOM     18  O   UNL     1      -1.204   7.062   1.140  0.00  0.00    +0.000 OA
ATOM     19  H   UNL     1      -1.329   7.463   2.037  0.00  0.00    +0.000 HD
ENDBRANCH  17  18
ENDBRANCH  16  17
ENDBRANCH  14  16
ENDBRANCH  12  14
ENDBRANCH  11  12
ENDBRANCH   1  11
TORSDOF 8
ENDMDL
MODEL      599
REMARK  Name = ZINC10314815
REMARK  10 active torsions:
REMARK  status: ('A' for Active; 'I' for Inactive)
REMARK    1  A    between atoms: C_1  and  N_20
REMARK    2  A    between atoms: C_2  and  N_20
REMARK    3  A    between atoms: C_3  and  C_4
REMARK    4  A    between atoms: C_3  and  N_20
REMARK    5  A    between atoms: C_4  and  C_5
REMARK    6  A    between atoms: C_5  and  N_6
REMARK    7  A    between atoms: C_7  and  C_9
REMARK    8  A    between atoms: C_13  and  N_15
REMARK    9  A    between atoms: N_15  and  S_16
REMARK   10  A    between atoms: S_16  and  C_19
REMARK                            x       y       z     vdW  Elec       q    Type
REMARK                         _______ _______ _______ _____ _____    ______ ____
ROOT
ATOM      1  C   UNL     1       4.118  -0.521  -2.670  0.00  0.00    +0.000 A 
ATOM      2  C   UNL     1       4.615   0.705  -2.222  0.00  0.00    +0.000 A 
ATOM      3  C   UNL     1       3.800   1.560  -1.509  0.00  0.00    +0.000 A 
ATOM      4  C   UNL     1       2.491   1.211  -1.238  0.00  0.00    +0.000 A 
ATOM      5  C   UNL     1       1.988  -0.009  -1.674  0.00  0.00    +0.000 A 
ATOM      6  C   UNL     1       2.798  -0.876  -2.393  0.00  0.00    +0.000 A 
ENDROOT
BRANCH   1   8
ATOM      7  N   UNL     1       6.263  -1.094  -3.702  0.00  0.00    +0.000 N 
ATOM      8  C   UNL     1       4.988  -1.439  -3.435  0.00  0.00    +0.000 C 
ATOM      9  O   UNL     1       4.553  -2.506  -3.824  0.00  0.00    +0.000 OA
ATOM     10  H   UNL     1       6.631  -0.190  -3.372  0.00  0.00    +0.000 HD
BRANCH   7  11
ATOM     11  C   UNL     1       7.125  -2.003  -4.460  0.00  0.00    +0.000 C 
BRANCH  11  12
ATOM     12  C   UNL     1       8.511  -1.376  -4.623  0.00  0.00    +0.000 C 
BRANCH  12  13
ATOM     13  C   UNL     1       9.411  -2.326  -5.415  0.00  0.00    +0.000 C 
BRANCH  13  16
ATOM     14  C   UNL     1      11.700  -2.696  -6.115  0.00  0.00    +0.000 C 
ATOM     15  C   UNL     1      10.680  -0.520  -6.410  0.00  0.00    +0.000 C 
ATOM     16  N   UNL     1      10.751  -1.716  -5.545  0.00  0.00    +0.000 N 
ATOM     17  H   UNL     1      11.082  -1.434  -4.611  0.00  0.00    +0.000 HD
ENDBRANCH  13  16
ENDBRANCH  12  13
ENDBRANCH  11  12
ENDBRANCH   7  11
ENDBRANCH   1   8
BRANCH   5  18
ATOM     18  N   UNL     1       0.665  -0.360  -1.394  0.00  0.00    +0.000 N 
ATOM     19  H   UNL     1      -0.106   0.078  -1.918  0.00  0.00    +0.000 HD
BRANCH  18  20
ATOM     20  S   UNL     1       0.336  -1.481  -0.220  0.00  0.00    +0.000 S 
ATOM     21  O   UNL     1       1.141  -2.603  -0.554  0.00  0.00    +0.000 OA
ATOM     22  O   UNL     1      -1.081  -1.585  -0.205  0.00  0.00    +0.000 OA
ATOM     23  C   UNL     1       0.924  -0.727   1.321  0.00  0.00    +0.000 C 
ENDBRANCH  18  20
ENDBRANCH   5  18
TORSDOF 7
ENDMDL
MODEL      600
REMARK  Name = ZINC03676975
REMARK  11 active torsions:
REMARK  status: ('A' for Active; 'I' for Inactive)
REMARK    1  A    between atoms: C_1  and  C_2
REMARK    2  A    between atoms: C_2  and  C_3
REMARK    3  A    between atoms: C_2  and  C_4
REMARK    4  A    between atoms: C_4  and  C_5
REMARK    5  A    between atoms: C_5  and  O_6
REMARK    6  A    between atoms: O_6  and  C_7
REMARK    7  A    between atoms: C_10  and  CA_15
REMARK    8  A    between atoms: C_12  and  O_13
REMARK    9  A    between atoms: O_13  and  C_14
REMARK   10  A    between atoms: CA_15  and  C_16
REMARK   11  A    between atoms: CA_15  and  N_19
REMARK                            x       y       z     vdW  Elec       q    Type
REMARK                         _______ _______ _______ _____ _____    ______ ____
ROOT
ATOM      1  C   UNL     1       0.002  -0.004   0.002  0.00  0.00    +0.000 A 
ATOM      2  C   UNL     1       1.210  -0.682  -0.019  0.00  0.00    +0.000 A 
ATOM      3  C   UNL     1       1.227  -2.064  -0.020  0.00  0.00    +0.000 A 
ATOM      4  C   UNL     1       0.041  -2.773  -0.013  0.00  0.00    +0.000 A 
ATOM      5  C   UNL     1      -1.168  -2.103   0.002  0.00  0.00    +0.000 A 
ATOM      6  C   UNL     1      -1.192  -0.718   0.010  0.00  0.00    +0.000 A 
ENDROOT
BRANCH   6   7
ATOM      7  O   UNL     1      -2.381  -0.057   0.024  0.00  0.00    +0.000 OA
ATOM      8  C   UNL     1      -3.567  -0.854   0.031  0.00  0.00    +0.000 C 
ENDBRANCH   6   7
BRANCH   4   9
ATOM      9  CA  UNL     1       0.065  -4.280  -0.021  0.00  0.00    +0.000 C 
BRANCH   9  10
ATOM     10  N   UNL     1       1.140  -4.782   0.853  0.00  0.00    +0.000 N 
ATOM     11  H1  UNL     1       0.978  -4.447   1.813  0.00  0.00    +0.000 HD
ATOM     12  H2  UNL     1       2.044  -4.422   0.515  0.00  0.00    +0.000 HD
ATOM     13  H3  UNL     1       1.149  -5.812   0.841  0.00  0.00    +0.000 HD
ENDBRANCH   9  10
BRANCH   9  14
ATOM     14  C   UNL     1       0.306  -4.771  -1.426  0.00  0.00    +0.000 C 
ATOM     15  O   UNL     1       1.412  -5.124  -1.760  0.00  0.00    +0.000 OA
ATOM     16  OXT UNL     1      -0.707  -4.816  -2.304  0.00  0.00    +0.000 OA
ENDBRANCH   9  14
ENDBRANCH   4   9
BRANCH   1  17
ATOM     17  O   UNL     1      -0.016   1.356   0.009  0.00  0.00    +0.000 OA
BRANCH  17  18
ATOM     18  C   UNL     1       1.248   2.022   0.001  0.00  0.00    +0.000 C 
BRANCH  18  19
ATOM     19  C   UNL     1       1.027   3.536   0.011  0.00  0.00    +0.000 C 
BRANCH  19  21
ATOM     20  C   UNL     1       3.103   3.954  -1.314  0.00  0.00    +0.000 C 
ATOM     21  C   UNL     1       2.381   4.249   0.002  0.00  0.00    +0.000 C 
ATOM     22  C   UNL     1       2.163   5.757   0.138  0.00  0.00    +0.000 C 
ENDBRANCH  19  21
ENDBRANCH  18  19
ENDBRANCH  17  18
ENDBRANCH   1  17
TORSDOF 8
ENDMDL
MODEL      601
REMARK  Name = ZINC15083105
REMARK  9 active torsions:
REMARK  status: ('A' for Active; 'I' for Inactive)
REMARK    1  A    between atoms: C_1  and  S_2
REMARK    2  A    between atoms: S_2  and  C_5
REMARK    3  A    between atoms: N_9  and  C_17
REMARK    4  A    between atoms: C_10  and  C_11
REMARK    5  A    between atoms: C_17  and  C_18
REMARK    6  A    between atoms: C_18  and  N_23
REMARK    7  A    between atoms: C_19  and  C_20
REMARK    8  A    between atoms: C_19  and  N_23
REMARK    9  A    between atoms: C_20  and  O_21
REMARK                            x       y       z     vdW  Elec       q    Type
REMARK                         _______ _______ _______ _____ _____    ______ ____
ROOT
ATOM      1  C   UNL     1      -5.758   1.424   5.976  0.00  0.00    +0.000 C 
ATOM      2  C   UNL     1      -6.220   2.425   5.227  0.00  0.00    +0.000 C 
ATOM      3  C   UNL     1      -5.684   2.309   3.862  0.00  0.00    +0.000 C 
ATOM      4  O   UNL     1      -5.925   3.076   2.951  0.00  0.00    +0.000 OA
ATOM      5  N   UNL     1      -4.886   1.229   3.772  0.00  0.00    +0.000 N 
ATOM      6  C   UNL     1      -4.871   0.581   5.090  0.00  0.00    +0.000 C 
ATOM      7  O   UNL     1      -7.059   3.404   5.659  0.00  0.00    +0.000 OA
ENDROOT
BRANCH   6   8
ATOM      8  C   UNL     1      -5.418  -0.820   4.986  0.00  0.00    +0.000 A 
ATOM      9  C   UNL     1      -6.512  -1.077   4.182  0.00  0.00    +0.000 A 
ATOM     10  C   UNL     1      -7.011  -2.363   4.084  0.00  0.00    +0.000 A 
ATOM     11  C   UNL     1      -6.420  -3.389   4.797  0.00  0.00    +0.000 A 
ATOM     12  C   UNL     1      -5.328  -3.131   5.605  0.00  0.00    +0.000 A 
ATOM     13  C   UNL     1      -4.827  -1.846   5.700  0.00  0.00    +0.000 A 
ENDBRANCH   6   8
BRANCH   1  15
ATOM     14  C   UNL     1      -7.033  -0.431   7.700  0.00  0.00    +0.000 C 
ATOM     15  S   UNL     1      -6.118   1.135   7.677  0.00  0.00    +0.000 S 
ATOM     16  O   UNL     1      -4.849   0.970   8.293  0.00  0.00    +0.000 OA
ATOM     17  O   UNL     1      -6.973   2.207   8.053  0.00  0.00    +0.000 OA
ENDBRANCH   1  15
BRANCH   5  18
ATOM     18  C   UNL     1      -4.170   0.778   2.576  0.00  0.00    +0.000 C 
BRANCH  18  19
ATOM     19  C   UNL     1      -2.785   1.427   2.537  0.00  0.00    +0.000 C 
BRANCH  19  20
ATOM     20  N   UNL     1      -2.070   0.968   1.331  0.00  0.00    +0.000 N 
ATOM     21  H   UNL     1      -1.976  -0.057   1.359  0.00  0.00    +0.000 HD
ATOM     22  H   UNL     1      -2.606   1.235   0.493  0.00  0.00    +0.000 HD
BRANCH  20  23
ATOM     23  C   UNL     1      -0.729   1.579   1.267  0.00  0.00    +0.000 C 
BRANCH  23  24
ATOM     24  C   UNL     1      -0.013   1.086   0.008  0.00  0.00    +0.000 C 
BRANCH  24  25
ATOM     25  O   UNL     1      -0.704   1.559  -1.150  0.00  0.00    +0.000 OA
ATOM     26  H   UNL     1      -0.718   2.549  -1.145  0.00  0.00    +0.000 HD
ENDBRANCH  24  25
ENDBRANCH  23  24
ENDBRANCH  20  23
ENDBRANCH  19  20
ENDBRANCH  18  19
ENDBRANCH   5  18
TORSDOF 8
ENDMDL
MODEL      602
REMARK  Name = ZINC32011503
REMARK  8 active torsions:
REMARK  status: ('A' for Active; 'I' for Inactive)
REMARK    1  A    between atoms: C_1  and  N_2
REMARK    2  A    between atoms: N_2  and  C_3
REMARK    3  A    between atoms: C_3  and  C_4
REMARK    4  A    between atoms: C_4  and  C_5
REMARK    5  A    between atoms: C_5  and  N_6
REMARK    6  A    between atoms: N_6  and  C_7
REMARK    7  A    between atoms: C_14  and  C_22
REMARK    8  A    between atoms: N_16  and  C_19
REMARK                            x       y       z     vdW  Elec       q    Type
REMARK                         _______ _______ _______ _____ _____    ______ ____
ROOT
ATOM      1  N   UNL     1       4.511   4.346   0.874  0.00  0.00    +0.000 N 
ATOM      2  C   UNL     1       5.163   4.010   2.147  0.00  0.00    +0.000 C 
ATOM      3  C   UNL     1       3.399   3.549   0.660  0.00  0.00    +0.000 A 
ATOM      4  C   UNL     1       3.541   2.158   0.671  0.00  0.00    +0.000 A 
ATOM      5  C   UNL     1       2.442   1.369   0.459  0.00  0.00    +0.000 A 
ATOM      6  C   UNL     1       1.210   1.997   0.239  0.00  0.00    +0.000 A 
ATOM      7  C   UNL     1      -0.014   1.215   0.004  0.00  0.00    +0.000 A 
ATOM      8  O   UNL     1       0.003  -0.004  -0.006  0.00  0.00    +0.000 OA
ATOM      9  C   UNL     1      -1.260   1.968  -0.223  0.00  0.00    +0.000 A 
ATOM     10  C   UNL     1      -1.217   3.346  -0.192  0.00  0.00    +0.000 A 
ATOM     11  N   UNL     1      -0.080   4.021   0.025  0.00  0.00    +0.000 N 
ATOM     12  C   UNL     1       1.129   3.400   0.240  0.00  0.00    +0.000 A 
ATOM     13  N   UNL     1       2.224   4.120   0.450  0.00  0.00    +0.000 NA
ATOM     14  F   UNL     1       4.751   1.598   0.888  0.00  0.00    +0.000 F 
ENDROOT
BRANCH   9  15
ATOM     15  C   UNL     1      -2.525   1.264  -0.471  0.00  0.00    +0.000 C 
ATOM     16  O   UNL     1      -2.551   0.048  -0.490  0.00  0.00    +0.000 OA
ATOM     17  O   UNL     1      -3.658   1.965  -0.677  0.00  0.00    +0.000 OA
ENDBRANCH   9  15
BRANCH  11  18
ATOM     18  C   UNL     1      -0.126   5.486   0.033  0.00  0.00    +0.000 C 
ATOM     19  C   UNL     1      -1.501   6.149   0.136  0.00  0.00    +0.000 C 
ATOM     20  C   UNL     1      -0.733   6.180  -1.187  0.00  0.00    +0.000 C 
ENDBRANCH  11  18
BRANCH   1  21
ATOM     21  C   UNL     1       4.156   5.771   0.825  0.00  0.00    +0.000 C 
BRANCH  21  22
ATOM     22  C   UNL     1       5.432   6.615   0.815  0.00  0.00    +0.000 C 
BRANCH  22  23
ATOM     23  C   UNL     1       5.062   8.098   0.764  0.00  0.00    +0.000 C 
BRANCH  23  25
ATOM     24  C   UNL     1       5.970  10.342   0.705  0.00  0.00    +0.000 C 
ATOM     25  N   UNL     1       6.287   8.909   0.754  0.00  0.00    +0.000 N 
ATOM     26  H   UNL     1       6.853   8.658  -0.069  0.00  0.00    +0.000 HD
ATOM     27  H   UNL     1       6.832   8.710   1.605  0.00  0.00    +0.000 HD
ENDBRANCH  23  25
ENDBRANCH  22  23
ENDBRANCH  21  22
ENDBRANCH   1  21
TORSDOF 6
ENDMDL
MODEL      603
REMARK  Name = ZINC29469650
REMARK  10 active torsions:
REMARK  status: ('A' for Active; 'I' for Inactive)
REMARK    1  A    between atoms: C_1  and  C_2
REMARK    2  A    between atoms: C_2  and  C_3
REMARK    3  A    between atoms: C_2  and  N_6
REMARK    4  A    between atoms: C_3  and  O_4
REMARK    5  A    between atoms: O_4  and  C_5
REMARK    6  A    between atoms: C_7  and  S_9
REMARK    7  A    between atoms: S_9  and  C_10
REMARK    8  A    between atoms: C_10  and  C_11
REMARK    9  A    between atoms: N_16  and  S_19
REMARK   10  A    between atoms: S_19  and  C_22
REMARK                            x       y       z     vdW  Elec       q    Type
REMARK                         _______ _______ _______ _____ _____    ______ ____
ROOT
ATOM      1  C   UNL     1      -0.304   1.300   0.117  0.00  0.00    +0.000 C 
ENDROOT
BRANCH   1   2
ATOM      2  C   UNL     1      -1.195   1.936  -0.918  0.00  0.00    +0.000 C 
ATOM      3  O   UNL     1      -2.124   2.635  -0.571  0.00  0.00    +0.000 OA
ATOM      4  N   UNL     1      -0.961   1.730  -2.229  0.00  0.00    +0.000 N 
ATOM      5  C   UNL     1       0.165   0.891  -2.664  0.00  0.00    +0.000 C 
ATOM      6  C   UNL     1      -0.382  -0.220  -3.577  0.00  0.00    +0.000 C 
ATOM      7  N   UNL     1      -1.243   0.395  -4.598  0.00  0.00    +0.000 NA
ATOM      8  C   UNL     1      -2.365   1.238  -4.163  0.00  0.00    +0.000 C 
ATOM      9  C   UNL     1      -1.822   2.344  -3.249  0.00  0.00    +0.000 C 
BRANCH   7  10
ATOM     10  S   UNL     1      -0.954   0.141  -6.208  0.00  0.00    +0.000 S 
ATOM     11  O   UNL     1      -0.282  -1.110  -6.263  0.00  0.00    +0.000 OA
ATOM     12  O   UNL     1      -2.218   0.312  -6.835  0.00  0.00    +0.000 OA
ATOM     13  C   UNL     1       0.171   1.477  -6.697  0.00  0.00    +0.000 C 
ENDBRANCH   7  10
ENDBRANCH   1   2
BRANCH   1  14
ATOM     14  S   UNL     1      -0.873   1.763   1.771  0.00  0.00    +0.000 S 
BRANCH  14  16
ATOM     15  N   UNL     1       1.246   0.200   2.180  0.00  0.00    +0.000 N 
ATOM     16  C   UNL     1       0.313   0.907   2.754  0.00  0.00    +0.000 C 
ATOM     17  N   UNL     1       0.254   0.985   4.126  0.00  0.00    +0.000 N 
ATOM     18  H   UNL     1       1.240   0.070   1.158  0.00  0.00    +0.000 HD
ATOM     19  H   UNL     1       0.947   0.484   4.700  0.00  0.00    +0.000 HD
ATOM     20  H   UNL     1      -0.484   1.544   4.579  0.00  0.00    +0.000 HD
BRANCH  15  22
ATOM     21  C   UNL     1       2.367  -1.911   2.697  0.00  0.00    +0.000 C 
ATOM     22  C   UNL     1       2.304  -0.411   2.989  0.00  0.00    +0.000 C 
BRANCH  22  23
ATOM     23  C   UNL     1       3.648   0.233   2.643  0.00  0.00    +0.000 C 
BRANCH  23  24
ATOM     24  O   UNL     1       3.986  -0.070   1.288  0.00  0.00    +0.000 OA
ATOM     25  C   UNL     1       5.230   0.488   0.860  0.00  0.00    +0.000 C 
ENDBRANCH  23  24
ENDBRANCH  22  23
ENDBRANCH  15  22
ENDBRANCH  14  16
ENDBRANCH   1  14
TORSDOF 7
ENDMDL
MODEL      604
REMARK  Name = ZINC22843212
REMARK  9 active torsions:
REMARK  status: ('A' for Active; 'I' for Inactive)
REMARK    1  A    between atoms: C_1  and  C_2
REMARK    2  A    between atoms: C_8  and  C_10
REMARK    3  A    between atoms: C_10  and  N_11
REMARK    4  A    between atoms: N_14  and  C_17
REMARK    5  A    between atoms: C_17  and  C_18
REMARK    6  A    between atoms: C_18  and  C_20
REMARK    7  A    between atoms: C_20  and  C_21
REMARK    8  A    between atoms: C_20  and  C_23
REMARK    9  A    between atoms: C_23  and  C_25
REMARK                            x       y       z     vdW  Elec       q    Type
REMARK                         _______ _______ _______ _____ _____    ______ ____
ROOT
ATOM      1  N   UNL     1      -4.356  -1.631   0.011  0.00  0.00    +0.000 NA
ATOM      2  C   UNL     1      -3.842  -2.184  -1.250  0.00  0.00    +0.000 C 
ATOM      3  C   UNL     1      -3.882  -3.713  -1.186  0.00  0.00    +0.000 C 
ATOM      4  N   UNL     1      -5.262  -4.155  -0.945  0.00  0.00    +0.000 NA
ATOM      5  C   UNL     1      -5.777  -3.601   0.315  0.00  0.00    +0.000 C 
ATOM      6  C   UNL     1      -5.737  -2.073   0.252  0.00  0.00    +0.000 C 
ENDROOT
BRANCH   4   7
ATOM      7  C   UNL     1      -5.355  -5.621  -0.953  0.00  0.00    +0.000 C 
BRANCH   7   8
ATOM      8  C   UNL     1      -5.054  -6.136  -2.337  0.00  0.00    +0.000 C 
ATOM      9  O   UNL     1      -4.789  -5.362  -3.225  0.00  0.00    +0.000 OA
BRANCH   8  10
ATOM     10  C   UNL     1      -5.083  -7.618  -2.612  0.00  0.00    +0.000 C 
BRANCH  10  11
ATOM     11  C   UNL     1      -4.106  -7.943  -3.712  0.00  0.00    +0.000 C 
ATOM     12  N   UNL     1      -4.530  -8.393  -4.832  0.00  0.00    +0.000 N 
ATOM     13  C   UNL     1      -2.628  -7.739  -3.493  0.00  0.00    +0.000 C 
ATOM     14  H   UNL     1      -5.539  -8.532  -4.982  0.00  0.00    +0.000 HD
ATOM     15  H   UNL     1      -3.862  -8.615  -5.584  0.00  0.00    +0.000 HD
ENDBRANCH  10  11
BRANCH  10  16
ATOM     16  C   UNL     1      -6.438  -8.013  -3.027  0.00  0.00    +0.000 C 
ATOM     17  N   UNL     1      -7.485  -8.319  -3.347  0.00  0.00    +0.000 NA
ENDBRANCH  10  16
ENDBRANCH   8  10
ENDBRANCH   7   8
ENDBRANCH   4   7
BRANCH   1  18
ATOM     18  C   UNL     1      -4.264  -0.165   0.018  0.00  0.00    +0.000 C 
BRANCH  18  26
ATOM     19  C   UNL     1       2.500   1.546  -0.014  0.00  0.00    +0.000 C 
ATOM     20  C   UNL     1       1.041   1.923   0.002  0.00  0.00    +0.000 A 
ATOM     21  C   UNL     1      -0.013   1.076   0.008  0.00  0.00    +0.000 A 
ATOM     22  C   UNL     1      -1.143   1.935   0.017  0.00  0.00    +0.000 A 
ATOM     23  N   UNL     1      -0.674   3.155   0.025  0.00  0.00    +0.000 NA
ATOM     24  O   UNL     1       0.535   3.165   0.014  0.00  0.00    +0.000 OA
ATOM     25  N   UNL     1      -2.485   1.554   0.020  0.00  0.00    +0.000 N 
ATOM     26  C   UNL     1      -2.814   0.247   0.015  0.00  0.00    +0.000 C 
ATOM     27  O   UNL     1      -1.944  -0.597   0.006  0.00  0.00    +0.000 OA
ATOM     28  H   UNL     1      -3.224   2.271   0.027  0.00  0.00    +0.000 HD
ENDBRANCH  18  26
ENDBRANCH   1  18
TORSDOF 7
ENDMDL
MODEL      605
REMARK  Name = ZINC04045508
REMARK  8 active torsions:
REMARK  status: ('A' for Active; 'I' for Inactive)
REMARK    1  A    between atoms: C_1  and  O_2
REMARK    2  A    between atoms: O_2  and  C_3
REMARK    3  A    between atoms: C_8  and  N_9
REMARK    4  A    between atoms: N_9  and  C_10
REMARK    5  A    between atoms: C_10  and  C_11
REMARK    6  A    between atoms: N_13  and  N_14
REMARK    7  A    between atoms: C_15  and  C_16
REMARK    8  A    between atoms: C_19  and  S_21
REMARK                            x       y       z     vdW  Elec       q    Type
REMARK                         _______ _______ _______ _____ _____    ______ ____
ROOT
ATOM      1  C   UNL     1       0.564   7.323  -5.060  0.00  0.00    +0.000 C 
ATOM      2  O   UNL     1       0.707   6.212  -5.526  0.00  0.00    +0.000 OA
ATOM      3  N   UNL     1       0.553   7.497  -3.724  0.00  0.00    +0.000 N 
ATOM      4  H   UNL     1       0.431   8.440  -3.328  0.00  0.00    +0.000 HD
ENDROOT
BRANCH   3   5
ATOM      5  N   UNL     1       0.707   6.395  -2.872  0.00  0.00    +0.000 NA
ATOM      6  C   UNL     1       0.696   6.563  -1.583  0.00  0.00    +0.000 C 
BRANCH   6   7
ATOM      7  C   UNL     1       0.857   5.409  -0.692  0.00  0.00    +0.000 A 
ATOM      8  C   UNL     1       0.865   5.445   0.672  0.00  0.00    +0.000 A 
ATOM      9  C   UNL     1       1.040   4.119   1.111  0.00  0.00    +0.000 A 
ATOM     10  C   UNL     1       1.138   3.347   0.009  0.00  0.00    +0.000 A 
ATOM     11  O   UNL     1       1.024   4.128  -1.077  0.00  0.00    +0.000 OA
BRANCH  10  12
ATOM     12  S   UNL     1       1.371   1.601  -0.002  0.00  0.00    +0.000 S 
ATOM     13  O   UNL     1       1.982   1.264   1.235  0.00  0.00    +0.000 OA
ATOM     14  O   UNL     1       1.958   1.278  -1.255  0.00  0.00    +0.000 OA
ATOM     15  O   UNL     1      -0.011   0.963   0.007  0.00  0.00    +0.000 OA
ENDBRANCH  10  12
ENDBRANCH   6   7
ENDBRANCH   3   5
BRANCH   1  16
ATOM     16  C   UNL     1       0.399   8.508  -5.976  0.00  0.00    +0.000 C 
BRANCH  16  17
ATOM     17  N   UNL     1       0.446   8.059  -7.369  0.00  0.00    +0.000 N 
ATOM     18  H   UNL     1       0.576   7.060  -7.584  0.00  0.00    +0.000 HD
BRANCH  17  24
ATOM     19  C   UNL     1       0.358   8.562  -9.735  0.00  0.00    +0.000 A 
ATOM     20  C   UNL     1       0.226   9.485 -10.759  0.00  0.00    +0.000 A 
ATOM     21  C   UNL     1       0.050  10.825 -10.464  0.00  0.00    +0.000 A 
ATOM     22  C   UNL     1       0.006  11.248  -9.149  0.00  0.00    +0.000 A 
ATOM     23  C   UNL     1       0.132  10.332  -8.121  0.00  0.00    +0.000 A 
ATOM     24  C   UNL     1       0.313   8.987  -8.409  0.00  0.00    +0.000 A 
BRANCH  19  26
ATOM     25  C   UNL     1       0.565   6.881 -11.404  0.00  0.00    +0.000 C 
ATOM     26  O   UNL     1       0.529   7.244 -10.023  0.00  0.00    +0.000 OA
ENDBRANCH  19  26
ENDBRANCH  17  24
ENDBRANCH  16  17
ENDBRANCH   1  16
TORSDOF 7
ENDMDL
MODEL      606
REMARK  Name = ZINC06072830
REMARK  9 active torsions:
REMARK  status: ('A' for Active; 'I' for Inactive)
REMARK    1  A    between atoms: C_1  and  C_2
REMARK    2  A    between atoms: C_2  and  C_3
REMARK    3  A    between atoms: C_3  and  C_4
REMARK    4  A    between atoms: C_4  and  CA_5
REMARK    5  A    between atoms: CA_5  and  C_6
REMARK    6  A    between atoms: CA_5  and  N_25
REMARK    7  A    between atoms: C_8  and  C_9
REMARK    8  A    between atoms: C_8  and  N_25
REMARK    9  A    between atoms: C_17  and  O_20
REMARK                            x       y       z     vdW  Elec       q    Type
REMARK                         _______ _______ _______ _____ _____    ______ ____
ROOT
ATOM      1  C   UNL     1      -1.220   1.228  -3.536  0.00  0.00    +0.000 A 
ATOM      2  C   UNL     1      -2.525   0.802  -3.797  0.00  0.00    +0.000 A 
ATOM      3  O   UNL     1      -3.112  -0.075  -2.982  0.00  0.00    +0.000 OA
ATOM      4  C   UNL     1      -3.225   1.298  -4.914  0.00  0.00    +0.000 A 
ATOM      5  C   UNL     1      -2.636   2.187  -5.754  0.00  0.00    +0.000 A 
ATOM      6  C   UNL     1      -1.321   2.622  -5.506  0.00  0.00    +0.000 A 
ATOM      7  C   UNL     1      -0.693   3.546  -6.365  0.00  0.00    +0.000 A 
ATOM      8  C   UNL     1       0.599   3.943  -6.082  0.00  0.00    +0.000 A 
ATOM      9  C   UNL     1       1.247   3.429  -4.967  0.00  0.00    +0.000 A 
ATOM     10  O   UNL     1       0.649   2.553  -4.153  0.00  0.00    +0.000 OA
ATOM     11  C   UNL     1      -0.612   2.133  -4.385  0.00  0.00    +0.000 A 
ATOM     12  C   UNL     1       1.069   4.930  -7.128  0.00  0.00    +0.000 C 
ATOM     13  C   UNL     1      -0.217   5.422  -7.827  0.00  0.00    +0.000 C 
ATOM     14  C   UNL     1      -1.182   4.236  -7.617  0.00  0.00    +0.000 C 
ENDROOT
BRANCH   9  15
ATOM     15  O   UNL     1       2.508   3.821  -4.699  0.00  0.00    +0.000 OA
ATOM     16  H   UNL     1       2.465   4.808  -4.632  0.00  0.00    +0.000 HD
ENDBRANCH   9  15
BRANCH   1  17
ATOM     17  C   UNL     1      -0.476   0.698  -2.337  0.00  0.00    +0.000 C 
BRANCH  17  18
ATOM     18  N   UNL     1      -0.729   1.581  -1.182  0.00  0.00    +0.000 N 
ATOM     19  H1  UNL     1      -1.740   1.605  -0.987  0.00  0.00    +0.000 HD
ATOM     20  H2  UNL     1      -0.406   2.534  -1.405  0.00  0.00    +0.000 HD
BRANCH  18  21
ATOM     21  CA  UNL     1      -0.013   1.086   0.008  0.00  0.00    +0.000 C 
BRANCH  21  22
ATOM     22  C   UNL     1       1.401   1.607  -0.003  0.00  0.00    +0.000 C 
ATOM     23  O   UNL     1       1.778   2.312  -0.909  0.00  0.00    +0.000 OA
ATOM     24  OXT UNL     1       2.241   1.289   0.994  0.00  0.00    +0.000 OA
ENDBRANCH  21  22
BRANCH  21  25
ATOM     25  C   UNL     1      -0.729   1.579   1.267  0.00  0.00    +0.000 C 
BRANCH  25  26
ATOM     26  C   UNL     1      -2.121   0.950   1.341  0.00  0.00    +0.000 C 
BRANCH  26  28
ATOM     27  C   UNL     1      -4.230   0.814   2.674  0.00  0.00    +0.000 C 
ATOM     28  C   UNL     1      -2.837   1.443   2.600  0.00  0.00    +0.000 C 
ENDBRANCH  26  28
ENDBRANCH  25  26
ENDBRANCH  21  25
ENDBRANCH  18  21
ENDBRANCH  17  18
ENDBRANCH   1  17
TORSDOF 8
ENDMDL
MODEL      607
REMARK  Name = ZINC06198506
REMARK  11 active torsions:
REMARK  status: ('A' for Active; 'I' for Inactive)
REMARK    1  A    between atoms: C_1  and  N_25
REMARK    2  A    between atoms: C_2  and  N_25
REMARK    3  A    between atoms: C_3  and  C_4
REMARK    4  A    between atoms: C_3  and  N_25
REMARK    5  A    between atoms: C_4  and  C_5
REMARK    6  A    between atoms: C_5  and  N_6
REMARK    7  A    between atoms: C_7  and  C_9
REMARK    8  A    between atoms: C_14  and  O_23
REMARK    9  A    between atoms: C_15  and  O_21
REMARK   10  A    between atoms: O_21  and  C_22
REMARK   11  A    between atoms: O_23  and  C_24
REMARK                            x       y       z     vdW  Elec       q    Type
REMARK                         _______ _______ _______ _____ _____    ______ ____
ROOT
ATOM      1  C   UNL     1       1.194  -0.723  -0.014  0.00  0.00    +0.000 A 
ATOM      2  C   UNL     1       2.434  -0.024  -0.022  0.00  0.00    +0.000 A 
ATOM      3  O   UNL     1       3.494  -0.625  -0.035  0.00  0.00    +0.000 OA
ATOM      4  C   UNL     1       2.396   1.448  -0.013  0.00  0.00    +0.000 A 
ATOM      5  C   UNL     1       3.575   2.198  -0.021  0.00  0.00    +0.000 A 
ATOM      6  C   UNL     1       3.508   3.575  -0.013  0.00  0.00    +0.000 A 
ATOM      7  C   UNL     1       2.267   4.218   0.003  0.00  0.00    +0.000 A 
ATOM      8  C   UNL     1       1.096   3.483   0.011  0.00  0.00    +0.000 A 
ATOM      9  C   UNL     1       1.148   2.094   0.002  0.00  0.00    +0.000 A 
ATOM     10  N   UNL     1      -0.016   1.348   0.009  0.00  0.00    +0.000 NA
ATOM     11  C   UNL     1       0.002  -0.004   0.002  0.00  0.00    +0.000 A 
ATOM     12  O   UNL     1      -1.167  -0.675   0.010  0.00  0.00    +0.000 OA
ENDROOT
BRANCH   1  14
ATOM     13  N   UNL     1       1.174  -2.869   1.142  0.00  0.00    +0.000 N 
ATOM     14  C   UNL     1       1.172  -2.189  -0.021  0.00  0.00    +0.000 C 
ATOM     15  O   UNL     1       1.153  -2.792  -1.078  0.00  0.00    +0.000 OA
ATOM     16  H   UNL     1       1.191  -2.359   2.037  0.00  0.00    +0.000 HD
BRANCH  13  17
ATOM     17  C   UNL     1       1.153  -4.334   1.135  0.00  0.00    +0.000 C 
BRANCH  17  18
ATOM     18  C   UNL     1       1.159  -4.852   2.574  0.00  0.00    +0.000 C 
BRANCH  18  19
ATOM     19  C   UNL     1       1.137  -6.382   2.566  0.00  0.00    +0.000 C 
BRANCH  19  22
ATOM     20  C   UNL     1       0.884  -8.324   3.990  0.00  0.00    +0.000 C 
ATOM     21  C   UNL     1       2.408  -6.551   4.620  0.00  0.00    +0.000 C 
ATOM     22  N   UNL     1       1.122  -6.865   3.963  0.00  0.00    +0.000 N 
ATOM     23  H   UNL     1       0.362  -6.393   4.473  0.00  0.00    +0.000 HD
ENDBRANCH  19  22
ENDBRANCH  18  19
ENDBRANCH  17  18
ENDBRANCH  13  17
ENDBRANCH   1  14
BRANCH   7  24
ATOM     24  O   UNL     1       2.211   5.575   0.011  0.00  0.00    +0.000 OA
ATOM     25  C   UNL     1       0.912   6.171   0.027  0.00  0.00    +0.000 C 
ENDBRANCH   7  24
BRANCH   6  26
ATOM     26  O   UNL     1       4.653   4.310  -0.020  0.00  0.00    +0.000 OA
ATOM     27  C   UNL     1       5.886   3.589  -0.035  0.00  0.00    +0.000 C 
ENDBRANCH   6  26
TORSDOF 7
ENDMDL
MODEL      608
REMARK  Name = ZINC17218773
REMARK  7 active torsions:
REMARK  status: ('A' for Active; 'I' for Inactive)
REMARK    1  A    between atoms: C_1  and  O_2
REMARK    2  A    between atoms: O_2  and  N_3
REMARK    3  A    between atoms: C_4  and  C_5
REMARK    4  A    between atoms: C_4  and  C_11
REMARK    5  A    between atoms: N_13  and  C_14
REMARK    6  A    between atoms: N_16  and  C_19
REMARK    7  A    between atoms: C_19  and  C_20
REMARK                            x       y       z     vdW  Elec       q    Type
REMARK                         _______ _______ _______ _____ _____    ______ ____
ROOT
ATOM      1  C   UNL     1      -0.612  -6.453   2.023  0.00  0.00    +0.000 C 
ATOM      2  O   UNL     1      -0.668  -6.781   0.854  0.00  0.00    +0.000 OA
ATOM      3  N   UNL     1      -1.150  -5.283   2.422  0.00  0.00    +0.000 N 
ATOM      4  H   UNL     1      -1.103  -5.005   3.412  0.00  0.00    +0.000 HD
ENDROOT
BRANCH   3   5
ATOM      5  C   UNL     1      -1.771  -4.447   1.491  0.00  0.00    +0.000 A 
ATOM      6  C   UNL     1      -2.373  -3.236   1.672  0.00  0.00    +0.000 A 
ATOM      7  N   UNL     1      -2.892  -2.637   0.620  0.00  0.00    +0.000 N 
ATOM      8  C   UNL     1      -2.844  -3.182  -0.573  0.00  0.00    +0.000 A 
ATOM      9  S   UNL     1      -1.998  -4.667  -0.268  0.00  0.00    +0.000 S 
BRANCH   7  10
ATOM     10  C   UNL     1      -3.544  -1.336   0.786  0.00  0.00    +0.000 C 
BRANCH  10  11
ATOM     11  C   UNL     1      -2.528  -0.238   0.602  0.00  0.00    +0.000 C 
ATOM     12  O   UNL     1      -1.378  -0.514   0.357  0.00  0.00    +0.000 OA
ATOM     13  O   UNL     1      -2.902   1.047   0.711  0.00  0.00    +0.000 OA
ENDBRANCH  10  11
ENDBRANCH   7  10
ENDBRANCH   3   5
BRANCH   1  15
ATOM     14  N   UNL     1       0.239  -6.925   4.234  0.00  0.00    +0.000 NA
ATOM     15  C   UNL     1       0.046  -7.340   3.011  0.00  0.00    +0.000 C 
BRANCH  15  16
ATOM     16  C   UNL     1       0.484  -8.689   2.613  0.00  0.00    +0.000 A 
ATOM     17  C   UNL     1       1.397  -9.356   3.355  0.00  0.00    +0.000 A 
ATOM     18  S   UNL     1       1.561 -10.891   2.459  0.00  0.00    +0.000 S 
ATOM     19  C   UNL     1       0.406 -10.539   1.144  0.00  0.00    +0.000 A 
ATOM     20  N   UNL     1       0.061 -11.284   0.125  0.00  0.00    +0.000 NA
ATOM     21  N   UNL     1      -0.028  -9.276   1.484  0.00  0.00    +0.000 N 
ATOM     22  H   UNL     1       0.549 -12.191   0.122  0.00  0.00    +0.000 HD
ATOM     23  H   UNL     1      -0.721  -8.783   0.903  0.00  0.00    +0.000 HD
ENDBRANCH  15  16
BRANCH  14  25
ATOM     24  C   UNL     1       0.852  -7.243   6.518  0.00  0.00    +0.000 C 
ATOM     25  O   UNL     1       0.683  -7.832   5.227  0.00  0.00    +0.000 OA
ENDBRANCH  14  25
ENDBRANCH   1  15
TORSDOF 6
ENDMDL
MODEL      609
REMARK  Name = ZINC20059551
REMARK  8 active torsions:
REMARK  status: ('A' for Active; 'I' for Inactive)
REMARK    1  A    between atoms: C_1  and  C_2
REMARK    2  A    between atoms: C_2  and  N_3
REMARK    3  A    between atoms: N_6  and  C_9
REMARK    4  A    between atoms: C_9  and  C_10
REMARK    5  A    between atoms: C_11  and  C_21
REMARK    6  A    between atoms: C_21  and  O_23
REMARK    7  A    between atoms: O_23  and  C_24
REMARK    8  A    between atoms: C_24  and  C_25
REMARK                            x       y       z     vdW  Elec       q    Type
REMARK                         _______ _______ _______ _____ _____    ______ ____
ROOT
ATOM      1  C   UNL     1      -1.383  -2.120   0.004  0.00  0.00    +0.000 A 
ATOM      2  C   UNL     1      -1.264  -0.758   0.010  0.00  0.00    +0.000 A 
ATOM      3  N   UNL     1      -2.498  -0.223   0.031  0.00  0.00    +0.000 NA
ATOM      4  N   UNL     1      -3.376  -1.165   0.029  0.00  0.00    +0.000 NA
ATOM      5  N   UNL     1      -2.706  -2.396   0.016  0.00  0.00    +0.000 N 
ATOM      6  C   UNL     1      -3.293  -3.666   0.015  0.00  0.00    +0.000 A 
ATOM      7  C   UNL     1      -4.732  -3.946   0.028  0.00  0.00    +0.000 A 
ATOM      8  N   UNL     1      -4.898  -5.240   0.022  0.00  0.00    +0.000 NA
ATOM      9  O   UNL     1      -3.616  -5.842   0.005  0.00  0.00    +0.000 OA
ATOM     10  N   UNL     1      -2.654  -4.801  -0.004  0.00  0.00    +0.000 NA
ATOM     11  N   UNL     1      -5.746  -2.995   0.044  0.00  0.00    +0.000 N 
ATOM     12  H   UNL     1      -5.436  -2.012   0.047  0.00  0.00    +0.000 HD
ATOM     13  H   UNL     1      -6.746  -3.239   0.053  0.00  0.00    +0.000 HD
ENDROOT
BRANCH   2  14
ATOM     14  C   UNL     1       0.002  -0.004   0.002  0.00  0.00    +0.000 C 
ATOM     15  O   UNL     1       1.062  -0.597  -0.011  0.00  0.00    +0.000 OA
BRANCH  14  16
ATOM     16  O   UNL     1      -0.016   1.343   0.009  0.00  0.00    +0.000 OA
BRANCH  16  17
ATOM     17  C   UNL     1       1.268   2.020   0.001  0.00  0.00    +0.000 C 
ATOM     18  C   UNL     1       1.047   3.534   0.011  0.00  0.00    +0.000 C 
ENDBRANCH  16  17
ENDBRANCH  14  16
ENDBRANCH   2  14
BRANCH   1  19
ATOM     19  C   UNL     1      -0.256  -3.120  -0.013  0.00  0.00    +0.000 C 
BRANCH  19  23
ATOM     20  N   UNL     1       0.612  -5.169  -3.603  0.00  0.00    +0.000 N 
ATOM     21  C   UNL     1       1.711  -4.464  -2.930  0.00  0.00    +0.000 C 
ATOM     22  C   UNL     1       1.337  -4.222  -1.466  0.00  0.00    +0.000 C 
ATOM     23  N   UNL     1       0.096  -3.438  -1.403  0.00  0.00    +0.000 NA
ATOM     24  C   UNL     1      -1.004  -4.144  -2.076  0.00  0.00    +0.000 C 
ATOM     25  C   UNL     1      -0.629  -4.385  -3.541  0.00  0.00    +0.000 C 
ATOM     26  H   UNL     1       0.452  -6.058  -3.107  0.00  0.00    +0.000 HD
BRANCH  20  28
ATOM     27  C   UNL     1      -0.087  -6.429  -5.583  0.00  0.00    +0.000 C 
ATOM     28  C   UNL     1       0.964  -5.487  -4.994  0.00  0.00    +0.000 C 
ENDBRANCH  20  28
ENDBRANCH  19  23
ENDBRANCH   1  19
TORSDOF 6
ENDMDL
MODEL      610
REMARK  Name = ZINC01627808
REMARK  8 active torsions:
REMARK  status: ('A' for Active; 'I' for Inactive)
REMARK    1  A    between atoms: C_1  and  C_2
REMARK    2  A    between atoms: C_2  and  N_3
REMARK    3  A    between atoms: N_3  and  N_4
REMARK    4  A    between atoms: C_5  and  C_7
REMARK    5  A    between atoms: C_7  and  N_8
REMARK    6  A    between atoms: C_14  and  C_15
REMARK    7  A    between atoms: N_17  and  C_18
REMARK    8  A    between atoms: C_22  and  N_24
REMARK                            x       y       z     vdW  Elec       q    Type
REMARK                         _______ _______ _______ _____ _____    ______ ____
ROOT
ATOM      1  C   UNL     1      -9.720   1.699   1.221  0.00  0.00    +0.000 C 
ATOM      2  C   UNL     1      -8.523   2.037   0.370  0.00  0.00    +0.000 C 
ATOM      3  C   UNL     1      -7.374   1.067   0.266  0.00  0.00    +0.000 C 
ENDROOT
BRANCH   3   4
ATOM      4  C   UNL     1      -6.314   1.640  -0.639  0.00  0.00    +0.000 C 
ATOM      5  O   UNL     1      -6.475   2.728  -1.149  0.00  0.00    +0.000 OA
ATOM      6  N   UNL     1      -5.186   0.943  -0.881  0.00  0.00    +0.000 N 
ATOM      7  H   UNL     1      -5.080  -0.011  -0.506  0.00  0.00    +0.000 HD
BRANCH   6   8
ATOM      8  C   UNL     1      -4.160   1.514  -1.641  0.00  0.00    +0.000 A 
ATOM      9  C   UNL     1      -4.466   2.356  -2.703  0.00  0.00    +0.000 A 
ATOM     10  C   UNL     1      -3.451   2.918  -3.451  0.00  0.00    +0.000 A 
ATOM     11  C   UNL     1      -2.130   2.650  -3.140  0.00  0.00    +0.000 A 
ATOM     12  C   UNL     1      -1.822   1.808  -2.087  0.00  0.00    +0.000 A 
ATOM     13  C   UNL     1      -2.833   1.242  -1.335  0.00  0.00    +0.000 A 
BRANCH  12  14
ATOM     14  N   UNL     1      -0.407   1.518  -1.762  0.00  0.00    +0.000 N 
ATOM     15  O   UNL     1      -0.135   0.781  -0.831  0.00  0.00    +0.000 OA
ATOM     16  O   UNL     1       0.484   2.013  -2.428  0.00  0.00    +0.000 OA
ENDBRANCH  12  14
ENDBRANCH   6   8
ENDBRANCH   3   4
BRANCH   2  17
ATOM     17  N   UNL     1      -8.482   3.148  -0.265  0.00  0.00    +0.000 N 
ATOM     18  H   UNL     1      -9.302   3.772  -0.263  0.00  0.00    +0.000 HD
BRANCH  17  19
ATOM     19  N   UNL     1      -7.324   3.514  -0.962  0.00  0.00    +0.000 N 
ATOM     20  C   UNL     1      -7.244   4.726  -1.546  0.00  0.00    +0.000 C 
ATOM     21  O   UNL     1      -8.175   5.500  -1.468  0.00  0.00    +0.000 OA
ATOM     22  H   UNL     1      -6.533   2.857  -1.028  0.00  0.00    +0.000 HD
BRANCH  20  23
ATOM     23  C   UNL     1      -5.998   5.120  -2.297  0.00  0.00    +0.000 C 
BRANCH  23  24
ATOM     24  N   UNL     1      -6.159   6.473  -2.834  0.00  0.00    +0.000 N 
ATOM     25  C   UNL     1      -6.669   6.629  -4.040  0.00  0.00    +0.000 A 
ATOM     26  C   UNL     1      -6.840   7.890  -4.578  0.00  0.00    +0.000 A 
ATOM     27  C   UNL     1      -6.458   8.998  -3.837  0.00  0.00    +0.000 A 
ATOM     28  C   UNL     1      -5.920   8.795  -2.575  0.00  0.00    +0.000 A 
ATOM     29  C   UNL     1      -5.784   7.504  -2.101  0.00  0.00    +0.000 A 
ENDBRANCH  23  24
ENDBRANCH  20  23
ENDBRANCH  17  19
ENDBRANCH   2  17
TORSDOF 7
ENDMDL
MODEL      611
REMARK  Name = ZINC20463004
REMARK  7 active torsions:
REMARK  status: ('A' for Active; 'I' for Inactive)
REMARK    1  A    between atoms: C_3  and  C_23
REMARK    2  A    between atoms: N_4  and  C_6
REMARK    3  A    between atoms: C_6  and  C_7
REMARK    4  A    between atoms: C_7  and  C_8
REMARK    5  A    between atoms: C_13  and  C_14
REMARK    6  A    between atoms: C_14  and  C_15
REMARK    7  A    between atoms: C_18  and  C_20
REMARK                            x       y       z     vdW  Elec       q    Type
REMARK                         _______ _______ _______ _____ _____    ______ ____
ROOT
ATOM      1  C   UNL     1       3.161   5.150   0.118  0.00  0.00    +0.000 C 
ATOM      2  C   UNL     1       4.546   5.799   0.208  0.00  0.00    +0.000 C 
ATOM      3  N   UNL     1       5.162   5.426   1.489  0.00  0.00    +0.000 N 
ATOM      4  C   UNL     1       5.258   4.002   1.837  0.00  0.00    +0.000 C 
ATOM      5  C   UNL     1       3.866   3.373   1.730  0.00  0.00    +0.000 C 
ATOM      6  C   UNL     1       3.296   3.641   0.335  0.00  0.00    +0.000 C 
ATOM      7  C   UNL     1       5.628   6.372   2.328  0.00  0.00    +0.000 C 
ATOM      8  O   UNL     1       5.543   7.544   2.029  0.00  0.00    +0.000 OA
ENDROOT
BRANCH   7   9
ATOM      9  C   UNL     1       6.258   5.972   3.638  0.00  0.00    +0.000 C 
ATOM     10  C   UNL     1       5.500   6.322   4.920  0.00  0.00    +0.000 C 
ATOM     11  C   UNL     1       6.768   7.092   4.546  0.00  0.00    +0.000 C 
ENDBRANCH   7   9
BRANCH   1  12
ATOM     12  C   UNL     1       2.249   5.741   1.195  0.00  0.00    +0.000 C 
BRANCH  12  13
ATOM     13  C   UNL     1       2.015   7.225   0.907  0.00  0.00    +0.000 C 
BRANCH  13  17
ATOM     14  C   UNL     1       1.050   7.622   4.419  0.00  0.00    +0.000 C 
ATOM     15  C   UNL     1      -0.333   7.457   3.747  0.00  0.00    +0.000 C 
ATOM     16  C   UNL     1       0.032   7.024   2.305  0.00  0.00    +0.000 C 
ATOM     17  N   UNL     1       1.248   7.823   2.008  0.00  0.00    +0.000 N 
ATOM     18  C   UNL     1       2.038   7.836   3.258  0.00  0.00    +0.000 C 
ATOM     19  H   UNL     1       1.006   8.778   1.706  0.00  0.00    +0.000 HD
BRANCH  16  20
ATOM     20  C   UNL     1      -1.079   7.370   1.348  0.00  0.00    +0.000 C 
ATOM     21  O   UNL     1      -0.900   8.205   0.487  0.00  0.00    +0.000 OA
ATOM     22  N   UNL     1      -2.273   6.753   1.450  0.00  0.00    +0.000 N 
ATOM     23  H   UNL     1      -2.425   6.044   2.181  0.00  0.00    +0.000 HD
ATOM     24  H   UNL     1      -3.033   6.989   0.796  0.00  0.00    +0.000 HD
ENDBRANCH  16  20
ENDBRANCH  13  17
ENDBRANCH  12  13
ENDBRANCH   1  12
BRANCH   6  25
ATOM     25  C   UNL     1       1.919   2.984   0.212  0.00  0.00    +0.000 C 
BRANCH  25  26
ATOM     26  C   UNL     1       2.067   1.487   0.302  0.00  0.00    +0.000 C 
ATOM     27  O   UNL     1       3.161   0.996   0.449  0.00  0.00    +0.000 OA
ATOM     28  O   UNL     1       0.984   0.699   0.218  0.00  0.00    +0.000 OA
ENDBRANCH  25  26
ENDBRANCH   6  25
TORSDOF 7
ENDMDL
MODEL      612
REMARK  Name = ZINC10940094
REMARK  10 active torsions:
REMARK  status: ('A' for Active; 'I' for Inactive)
REMARK    1  A    between atoms: C_1  and  N_2
REMARK    2  A    between atoms: C_3  and  S_7
REMARK    3  A    between atoms: S_7  and  C_8
REMARK    4  A    between atoms: C_8  and  C_9
REMARK    5  A    between atoms: C_9  and  C_11
REMARK    6  A    between atoms: C_12  and  N_23
REMARK    7  A    between atoms: N_13  and  C_19
REMARK    8  A    between atoms: C_19  and  C_20
REMARK    9  A    between atoms: C_20  and  O_21
REMARK   10  A    between atoms: O_21  and  C_22
REMARK                            x       y       z     vdW  Elec       q    Type
REMARK                         _______ _______ _______ _____ _____    ______ ____
ROOT
ATOM      1  C   UNL     1      -3.424   1.398  -2.478  0.00  0.00    +0.000 A 
ATOM      2  C   UNL     1      -2.764   1.042  -1.289  0.00  0.00    +0.000 A 
ATOM      3  N   UNL     1      -2.085  -0.142  -1.240  0.00  0.00    +0.000 N 
ATOM      4  C   UNL     1      -2.046  -0.968  -2.297  0.00  0.00    +0.000 A 
ATOM      5  O   UNL     1      -1.431  -2.013  -2.201  0.00  0.00    +0.000 OA
ATOM      6  N   UNL     1      -2.660  -0.683  -3.457  0.00  0.00    +0.000 N 
ATOM      7  C   UNL     1      -3.353   0.464  -3.609  0.00  0.00    +0.000 A 
ATOM      8  O   UNL     1      -3.909   0.720  -4.661  0.00  0.00    +0.000 OA
ATOM      9  H   UNL     1      -2.600  -1.349  -4.241  0.00  0.00    +0.000 HD
ENDROOT
BRANCH   2  10
ATOM     10  N   UNL     1      -2.798   1.865  -0.206  0.00  0.00    +0.000 N 
ATOM     11  H   UNL     1      -3.312   2.756  -0.260  0.00  0.00    +0.000 HD
ATOM     12  H   UNL     1      -2.313   1.599   0.663  0.00  0.00    +0.000 HD
ENDBRANCH   2  10
BRANCH   1  13
ATOM     13  C   UNL     1      -4.135   2.613  -2.580  0.00  0.00    +0.000 C 
ATOM     14  O   UNL     1      -4.274   3.319  -1.602  0.00  0.00    +0.000 OA
BRANCH  13  15
ATOM     15  C   UNL     1      -4.721   3.034  -3.903  0.00  0.00    +0.000 C 
BRANCH  15  16
ATOM     16  S   UNL     1      -5.565   4.623  -3.710  0.00  0.00    +0.000 S 
BRANCH  16  19
ATOM     17  C   UNL     1      -7.305   7.088  -5.048  0.00  0.00    +0.000 C 
ATOM     18  N   UNL     1      -6.853   5.923  -5.814  0.00  0.00    +0.000 N 
ATOM     19  C   UNL     1      -6.138   4.868  -5.359  0.00  0.00    +0.000 A 
ATOM     20  N   UNL     1      -5.946   4.061  -6.380  0.00  0.00    +0.000 NA
ATOM     21  N   UNL     1      -6.499   4.535  -7.438  0.00  0.00    +0.000 NA
ATOM     22  N   UNL     1      -7.066   5.664  -7.179  0.00  0.00    +0.000 NA
ENDBRANCH  16  19
ENDBRANCH  15  16
ENDBRANCH  13  15
ENDBRANCH   1  13
BRANCH   3  23
ATOM     23  C   UNL     1      -1.390  -0.521  -0.007  0.00  0.00    +0.000 C 
BRANCH  23  24
ATOM     24  C   UNL     1       0.046   0.006  -0.048  0.00  0.00    +0.000 C 
BRANCH  24  25
ATOM     25  O   UNL     1       0.029   1.435  -0.049  0.00  0.00    +0.000 OA
ATOM     26  C   UNL     1       1.327   2.031  -0.086  0.00  0.00    +0.000 C 
ENDBRANCH  24  25
ENDBRANCH  23  24
ENDBRANCH   3  23
TORSDOF 8
ENDMDL
MODEL      613
REMARK  Name = ZINC19751990
REMARK  9 active torsions:
REMARK  status: ('A' for Active; 'I' for Inactive)
REMARK    1  A    between atoms: C_1  and  O_2
REMARK    2  A    between atoms: O_2  and  C_3
REMARK    3  A    between atoms: C_8  and  O_9
REMARK    4  A    between atoms: O_9  and  C_10
REMARK    5  A    between atoms: N_11  and  C_16
REMARK    6  A    between atoms: C_12  and  C_14
REMARK    7  A    between atoms: C_14  and  N_15
REMARK    8  A    between atoms: C_16  and  C_17
REMARK    9  A    between atoms: C_21  and  C_23
REMARK                            x       y       z     vdW  Elec       q    Type
REMARK                         _______ _______ _______ _____ _____    ______ ____
ROOT
ATOM      1  C   UNL     1       2.007   4.837   0.138  0.00  0.00    +0.000 A 
ATOM      2  C   UNL     1       3.352   5.024   0.376  0.00  0.00    +0.000 A 
ATOM      3  C   UNL     1       4.230   3.939   0.291  0.00  0.00    +0.000 A 
ATOM      4  C   UNL     1       3.732   2.667  -0.035  0.00  0.00    +0.000 A 
ATOM      5  C   UNL     1       2.374   2.490  -0.266  0.00  0.00    +0.000 A 
ATOM      6  C   UNL     1       1.516   3.571  -0.186  0.00  0.00    +0.000 A 
ATOM      7  N   UNL     1       4.824   1.820  -0.040  0.00  0.00    +0.000 N 
ATOM      8  C   UNL     1       5.918   2.568   0.270  0.00  0.00    +0.000 A 
ATOM      9  N   UNL     1       5.571   3.807   0.464  0.00  0.00    +0.000 NA
ENDROOT
BRANCH   6  10
ATOM     10  O   UNL     1       0.187   3.398  -0.417  0.00  0.00    +0.000 OA
ATOM     11  C   UNL     1      -0.248   2.077  -0.744  0.00  0.00    +0.000 C 
ENDBRANCH   6  10
BRANCH   1  13
ATOM     12  C   UNL     1       1.718   7.161   0.556  0.00  0.00    +0.000 C 
ATOM     13  O   UNL     1       1.152   5.893   0.220  0.00  0.00    +0.000 OA
ENDBRANCH   1  13
BRANCH   8  14
ATOM     14  C   UNL     1       7.325   2.039   0.374  0.00  0.00    +0.000 C 
BRANCH  14  15
ATOM     15  N   UNL     1       7.625   1.717   1.775  0.00  0.00    +0.000 N 
ATOM     16  H   UNL     1       6.964   1.002   2.114  0.00  0.00    +0.000 HD
ATOM     17  H   UNL     1       7.535   2.566   2.351  0.00  0.00    +0.000 HD
ATOM     18  H   UNL     1       8.587   1.355   1.847  0.00  0.00    +0.000 HD
ENDBRANCH  14  15
ENDBRANCH   8  14
BRANCH   7  19
ATOM     19  C   UNL     1       4.807   0.383  -0.327  0.00  0.00    +0.000 C 
BRANCH  19  20
ATOM     20  C   UNL     1       4.875   0.168  -1.817  0.00  0.00    +0.000 A 
ATOM     21  C   UNL     1       3.709   0.103  -2.560  0.00  0.00    +0.000 A 
ATOM     22  C   UNL     1       3.763  -0.088  -3.929  0.00  0.00    +0.000 A 
ATOM     23  C   UNL     1       4.981  -0.227  -4.562  0.00  0.00    +0.000 A 
ATOM     24  C   UNL     1       6.161  -0.169  -3.818  0.00  0.00    +0.000 A 
ATOM     25  C   UNL     1       6.100   0.030  -2.437  0.00  0.00    +0.000 A 
BRANCH  24  26
ATOM     26  C   UNL     1       7.469  -0.318  -4.489  0.00  0.00    +0.000 C 
ATOM     27  O   UNL     1       8.494  -0.267  -3.840  0.00  0.00    +0.000 OA
ATOM     28  O   UNL     1       7.524  -0.510  -5.821  0.00  0.00    +0.000 OA
ENDBRANCH  24  26
ENDBRANCH  19  20
ENDBRANCH   7  19
TORSDOF 7
ENDMDL
MODEL      614
REMARK  Name = ZINC21038636
REMARK  5 active torsions:
REMARK  status: ('A' for Active; 'I' for Inactive)
REMARK    1  A    between atoms: C_3  and  C_7
REMARK    2  A    between atoms: N_8  and  N_9
REMARK    3  A    between atoms: C_12  and  S_15
REMARK    4  A    between atoms: S_15  and  C_16
REMARK    5  A    between atoms: C_16  and  C_17
REMARK                            x       y       z     vdW  Elec       q    Type
REMARK                         _______ _______ _______ _____ _____    ______ ____
ROOT
ATOM      1  N   UNL     1      11.581  -2.447  -0.121  0.00  0.00    +0.000 N 
ATOM      2  C   UNL     1      10.338  -1.831  -0.106  0.00  0.00    +0.000 A 
ATOM      3  N   UNL     1       9.127  -2.465  -0.098  0.00  0.00    +0.000 NA
ATOM      4  C   UNL     1       8.150  -1.510  -0.084  0.00  0.00    +0.000 A 
ATOM      5  N   UNL     1       8.733  -0.335  -0.089  0.00  0.00    +0.000 NA
ATOM      6  N   UNL     1      10.119  -0.538  -0.097  0.00  0.00    +0.000 N 
ATOM      7  H   UNL     1      11.647  -3.475  -0.127  0.00  0.00    +0.000 HD
ATOM      8  H   UNL     1      10.839   0.198  -0.097  0.00  0.00    +0.000 HD
ENDROOT
BRANCH   1  10
ATOM      9  C   UNL     1      13.911  -2.248  -0.142  0.00  0.00    +0.000 C 
ATOM     10  N   UNL     1      12.748  -1.671  -0.128  0.00  0.00    +0.000 NA
BRANCH   9  13
ATOM     11  C   UNL     1      17.520  -1.228  -0.171  0.00  0.00    +0.000 A 
ATOM     12  C   UNL     1      16.400  -2.040  -0.159  0.00  0.00    +0.000 A 
ATOM     13  C   UNL     1      15.139  -1.431  -0.149  0.00  0.00    +0.000 A 
ATOM     14  C   UNL     1      15.064  -0.036  -0.142  0.00  0.00    +0.000 A 
ATOM     15  N   UNL     1      16.161   0.693  -0.148  0.00  0.00    +0.000 NA
ATOM     16  C   UNL     1      17.361   0.146  -0.162  0.00  0.00    +0.000 A 
ENDBRANCH   9  13
ENDBRANCH   1  10
BRANCH   4  17
ATOM     17  S   UNL     1       6.413  -1.805  -0.069  0.00  0.00    +0.000 S 
BRANCH  17  18
ATOM     18  C   UNL     1       5.686  -0.143  -0.053  0.00  0.00    +0.000 C 
BRANCH  18  19
ATOM     19  C   UNL     1       4.183  -0.253  -0.039  0.00  0.00    +0.000 C 
ATOM     20  O   UNL     1       3.655  -1.345  -0.040  0.00  0.00    +0.000 OA
ATOM     21  N   UNL     1       3.426   0.862  -0.026  0.00  0.00    +0.000 N 
ATOM     22  C   UNL     1       2.040   0.761  -0.013  0.00  0.00    +0.000 A 
ATOM     23  N   UNL     1       1.311  -0.393  -0.013  0.00  0.00    +0.000 NA
ATOM     24  C   UNL     1       0.002  -0.004   0.002  0.00  0.00    +0.000 A 
ATOM     25  N   UNL     1      -0.016   1.300   0.009  0.00  0.00    +0.000 NA
ATOM     26  N   UNL     1       1.186   1.756   0.000  0.00  0.00    +0.000 NA
ATOM     27  H   UNL     1       3.875   1.789  -0.025  0.00  0.00    +0.000 HD
ENDBRANCH  18  19
ENDBRANCH  17  18
ENDBRANCH   4  17
TORSDOF 5
ENDMDL
MODEL      615
REMARK  Name = ZINC31905212
REMARK  8 active torsions:
REMARK  status: ('A' for Active; 'I' for Inactive)
REMARK    1  A    between atoms: C_4  and  O_7
REMARK    2  A    between atoms: O_7  and  C_8
REMARK    3  A    between atoms: C_8  and  C_9
REMARK    4  A    between atoms: C_8  and  O_18
REMARK    5  A    between atoms: C_9  and  N_10
REMARK    6  A    between atoms: O_18  and  C_19
REMARK    7  A    between atoms: C_19  and  P_20
REMARK    8  A    between atoms: P_20  and  O_23
REMARK                            x       y       z     vdW  Elec       q    Type
REMARK                         _______ _______ _______ _____ _____    ______ ____
ROOT
ATOM      1  C   UNL     1       2.194   5.086  -0.146  0.00  0.00    +0.000 C 
ENDROOT
BRANCH   1   2
ATOM      2  O   UNL     1       2.390   3.680  -0.304  0.00  0.00    +0.000 OA
BRANCH   2   6
ATOM      3  C   UNL     1      -0.635   1.207   1.020  0.00  0.00    +0.000 A 
ATOM      4  C   UNL     1       0.444   0.674   0.340  0.00  0.00    +0.000 A 
ATOM      5  C   UNL     1       1.458   1.500  -0.106  0.00  0.00    +0.000 A 
ATOM      6  C   UNL     1       1.394   2.865   0.134  0.00  0.00    +0.000 A 
ATOM      7  C   UNL     1       0.313   3.397   0.821  0.00  0.00    +0.000 A 
ATOM      8  C   UNL     1      -0.698   2.566   1.265  0.00  0.00    +0.000 A 
ENDBRANCH   2   6
ENDBRANCH   1   2
BRANCH   1   9
ATOM      9  C   UNL     1       3.552   5.778  -0.010  0.00  0.00    +0.000 C 
BRANCH   9  10
ATOM     10  N   UNL     1       4.350   5.529  -1.213  0.00  0.00    +0.000 N 
ATOM     11  C   UNL     1       5.170   4.442  -1.269  0.00  0.00    +0.000 A 
ATOM     12  C   UNL     1       5.898   4.219  -2.389  0.00  0.00    +0.000 A 
ATOM     13  C   UNL     1       5.795   5.127  -3.463  0.00  0.00    +0.000 A 
ATOM     14  N   UNL     1       4.987   6.174  -3.361  0.00  0.00    +0.000 NA
ATOM     15  C   UNL     1       4.273   6.377  -2.255  0.00  0.00    +0.000 A 
ATOM     16  O   UNL     1       3.537   7.347  -2.186  0.00  0.00    +0.000 OA
ATOM     17  N   UNL     1       6.528   4.928  -4.609  0.00  0.00    +0.000 N 
ATOM     18  H   UNL     1       7.154   4.113  -4.683  0.00  0.00    +0.000 HD
ATOM     19  H   UNL     1       6.452   5.592  -5.393  0.00  0.00    +0.000 HD
ENDBRANCH   9  10
ENDBRANCH   1   9
BRANCH   1  20
ATOM     20  O   UNL     1       1.508   5.603  -1.288  0.00  0.00    +0.000 OA
BRANCH  20  21
ATOM     21  C   UNL     1       0.101   5.354  -1.282  0.00  0.00    +0.000 C 
BRANCH  21  22
ATOM     22  P   UNL     1      -0.721   6.534  -0.162  0.00  0.00    +0.000 P 
ATOM     23  O   UNL     1      -0.085   6.470   1.174  0.00  0.00    +0.000 OA
ATOM     24  O   UNL     1      -0.578   8.025  -0.753  0.00  0.00    +0.000 OA
BRANCH  22  25
ATOM     25  O   UNL     1      -2.280   6.155  -0.033  0.00  0.00    +0.000 OA
ATOM     26  H   UNL     1      -2.369   5.239   0.332  0.00  0.00    +0.000 HD
ENDBRANCH  22  25
ENDBRANCH  21  22
ENDBRANCH  20  21
ENDBRANCH   1  20
TORSDOF 8
ENDMDL
MODEL      616
REMARK  Name = ZINC11548321
REMARK  8 active torsions:
REMARK  status: ('A' for Active; 'I' for Inactive)
REMARK    1  A    between atoms: C_1  and  C_2
REMARK    2  A    between atoms: C_2  and  O_3
REMARK    3  A    between atoms: O_3  and  C_4
REMARK    4  A    between atoms: C_9  and  C_10
REMARK    5  A    between atoms: N_12  and  C_13
REMARK    6  A    between atoms: C_13  and  C_14
REMARK    7  A    between atoms: N_16  and  N_17
REMARK    8  A    between atoms: C_22  and  C_25
REMARK                            x       y       z     vdW  Elec       q    Type
REMARK                         _______ _______ _______ _____ _____    ______ ____
ROOT
ATOM      1  C   UNL     1       2.369   1.025  -0.015  0.00  0.00    +0.000 C 
ATOM      2  O   UNL     1       2.385  -0.188  -0.022  0.00  0.00    +0.000 OA
ATOM      3  N   UNL     1       1.193   1.683  -0.000  0.00  0.00    +0.000 N 
ATOM      4  H   UNL     1       1.179   2.713   0.005  0.00  0.00    +0.000 HD
ENDROOT
BRANCH   3   5
ATOM      5  N   UNL     1      -0.011   0.966   0.007  0.00  0.00    +0.000 N 
ATOM      6  C   UNL     1      -1.205   1.634   0.017  0.00  0.00    +0.000 A 
ATOM      7  N   UNL     1      -2.372   0.932   0.018  0.00  0.00    +0.000 N 
ATOM      8  C   UNL     1      -3.539   1.618   0.028  0.00  0.00    +0.000 A 
ATOM      9  O   UNL     1      -4.609   1.034   0.030  0.00  0.00    +0.000 OA
ATOM     10  C   UNL     1      -3.482   3.029   0.036  0.00  0.00    +0.000 A 
ATOM     11  N   UNL     1      -2.314   3.627   0.034  0.00  0.00    +0.000 NA
ATOM     12  N   UNL     1      -1.218   2.955   0.029  0.00  0.00    +0.000 NA
ATOM     13  C   UNL     1      -4.751   3.841   0.047  0.00  0.00    +0.000 C 
ATOM     14  H   UNL     1       0.003  -0.064   0.006  0.00  0.00    +0.000 HD
ATOM     15  H   UNL     1      -2.367  -0.098   0.013  0.00  0.00    +0.000 HD
ENDBRANCH   3   5
BRANCH   1  16
ATOM     16  C   UNL     1       3.663   1.796  -0.023  0.00  0.00    +0.000 C 
BRANCH  16  19
ATOM     17  C   UNL     1       6.054   1.326  -0.049  0.00  0.00    +0.000 C 
ATOM     18  O   UNL     1       6.260   2.524  -0.044  0.00  0.00    +0.000 OA
ATOM     19  N   UNL     1       4.790   0.859  -0.039  0.00  0.00    +0.000 N 
ATOM     20  H   UNL     1       4.615  -0.156  -0.043  0.00  0.00    +0.000 HD
BRANCH  17  26
ATOM     21  C   UNL     1       8.505   0.863  -0.074  0.00  0.00    +0.000 A 
ATOM     22  C   UNL     1       9.563  -0.033  -0.089  0.00  0.00    +0.000 A 
ATOM     23  C   UNL     1       9.320  -1.392  -0.093  0.00  0.00    +0.000 A 
ATOM     24  C   UNL     1       8.020  -1.871  -0.083  0.00  0.00    +0.000 A 
ATOM     25  C   UNL     1       6.956  -0.995  -0.064  0.00  0.00    +0.000 A 
ATOM     26  C   UNL     1       7.188   0.382  -0.065  0.00  0.00    +0.000 A 
BRANCH  21  27
ATOM     27  O   UNL     1       8.742   2.199  -0.070  0.00  0.00    +0.000 OA
BRANCH  27  29
ATOM     28  C   UNL     1      10.178   4.143  -0.073  0.00  0.00    +0.000 C 
ATOM     29  C   UNL     1      10.110   2.614  -0.080  0.00  0.00    +0.000 C 
ENDBRANCH  27  29
ENDBRANCH  21  27
ENDBRANCH  17  26
ENDBRANCH  16  19
ENDBRANCH   1  16
TORSDOF 6
ENDMDL
MODEL      617
REMARK  Name = ZINC32092048
REMARK  8 active torsions:
REMARK  status: ('A' for Active; 'I' for Inactive)
REMARK    1  A    between atoms: C_3  and  N_21
REMARK    2  A    between atoms: C_4  and  O_10
REMARK    3  A    between atoms: C_6  and  N_7
REMARK    4  A    between atoms: O_10  and  C_11
REMARK    5  A    between atoms: C_11  and  C_12
REMARK    6  A    between atoms: C_12  and  C_13
REMARK    7  A    between atoms: C_12  and  O_20
REMARK    8  A    between atoms: C_13  and  N_14
REMARK                            x       y       z     vdW  Elec       q    Type
REMARK                         _______ _______ _______ _____ _____    ______ ____
ROOT
ATOM      1  C   UNL     1      -1.347   3.278   0.126  0.00  0.00    +0.000 A 
ATOM      2  C   UNL     1      -2.555   3.951   0.147  0.00  0.00    +0.000 A 
ATOM      3  C   UNL     1      -3.745   3.239   0.141  0.00  0.00    +0.000 A 
ATOM      4  C   UNL     1      -3.719   1.846   0.108  0.00  0.00    +0.000 A 
ATOM      5  C   UNL     1      -2.505   1.180   0.082  0.00  0.00    +0.000 A 
ATOM      6  C   UNL     1      -1.322   1.897   0.088  0.00  0.00    +0.000 A 
ENDROOT
BRANCH   3   7
ATOM      7  N   UNL     1      -4.969   3.917   0.166  0.00  0.00    +0.000 N 
ATOM      8  C   UNL     1      -4.769   5.381   0.017  0.00  0.00    +0.000 C 
ATOM      9  C   UNL     1      -6.157   5.882  -0.456  0.00  0.00    +0.000 C 
ATOM     10  C   UNL     1      -6.632   4.750  -1.394  0.00  0.00    +0.000 C 
ATOM     11  C   UNL     1      -5.825   3.509  -0.969  0.00  0.00    +0.000 C 
ENDBRANCH   3   7
BRANCH   6  12
ATOM     12  N   UNL     1      -0.026   1.182   0.060  0.00  0.00    +0.000 N 
ATOM     13  O   UNL     1      -0.003  -0.035   0.032  0.00  0.00    +0.000 OA
ATOM     14  O   UNL     1       1.016   1.812   0.061  0.00  0.00    +0.000 OA
ENDBRANCH   6  12
BRANCH   4  15
ATOM     15  O   UNL     1      -4.883   1.142   0.102  0.00  0.00    +0.000 OA
BRANCH  15  16
ATOM     16  C   UNL     1      -4.780  -0.283   0.068  0.00  0.00    +0.000 C 
BRANCH  16  17
ATOM     17  C   UNL     1      -6.181  -0.896   0.066  0.00  0.00    +0.000 C 
BRANCH  17  18
ATOM     18  O   UNL     1      -6.835  -0.593   1.300  0.00  0.00    +0.000 OA
ATOM     19  H   UNL     1      -6.905   0.389   1.405  0.00  0.00    +0.000 HD
ENDBRANCH  17  18
BRANCH  17  20
ATOM     20  C   UNL     1      -6.074  -2.413  -0.096  0.00  0.00    +0.000 C 
BRANCH  20  21
ATOM     21  N   UNL     1      -7.420  -3.003  -0.091  0.00  0.00    +0.000 NA
ATOM     22  C   UNL     1      -8.289  -2.340  -1.073  0.00  0.00    +0.000 C 
ATOM     23  C   UNL     1      -9.699  -2.928  -0.981  0.00  0.00    +0.000 C 
ATOM     24  N   UNL     1      -9.641  -4.376  -1.225  0.00  0.00    +0.000 N 
ATOM     25  C   UNL     1      -8.771  -5.038  -0.243  0.00  0.00    +0.000 C 
ATOM     26  C   UNL     1      -7.361  -4.451  -0.335  0.00  0.00    +0.000 C 
ATOM     27  H   UNL     1     -10.590  -4.770  -1.159  0.00  0.00    +0.000 HD
ATOM     28  H   UNL     1      -9.274  -4.547  -2.173  0.00  0.00    +0.000 HD
ENDBRANCH  20  21
ENDBRANCH  17  20
ENDBRANCH  16  17
ENDBRANCH  15  16
ENDBRANCH   4  15
TORSDOF 8
ENDMDL
MODEL      618
REMARK  Name = ZINC24911596
REMARK  10 active torsions:
REMARK  status: ('A' for Active; 'I' for Inactive)
REMARK    1  A    between atoms: C_1  and  C_2
REMARK    2  A    between atoms: C_2  and  C_3
REMARK    3  A    between atoms: C_3  and  C_25
REMARK    4  A    between atoms: N_6  and  C_10
REMARK    5  A    between atoms: C_10  and  C_11
REMARK    6  A    between atoms: C_11  and  O_13
REMARK    7  A    between atoms: O_13  and  C_14
REMARK    8  A    between atoms: C_14  and  C_15
REMARK    9  A    between atoms: N_21  and  C_22
REMARK   10  A    between atoms: N_21  and  C_23
REMARK                            x       y       z     vdW  Elec       q    Type
REMARK                         _______ _______ _______ _____ _____    ______ ____
ROOT
ATOM      1  O   UNL     1      -0.290   1.274  -2.438  0.00  0.00    +0.000 OA
ENDROOT
BRANCH   1   2
ATOM      2  C   UNL     1      -0.742   1.585  -1.213  0.00  0.00    +0.000 C 
ATOM      3  O   UNL     1      -1.732   2.266  -1.089  0.00  0.00    +0.000 OA
BRANCH   2   4
ATOM      4  C   UNL     1      -0.013   1.086   0.008  0.00  0.00    +0.000 C 
BRANCH   4   8
ATOM      5  C   UNL     1      -1.366   2.788   3.019  0.00  0.00    +0.000 C 
ATOM      6  C   UNL     1      -0.418   2.719   1.838  0.00  0.00    +0.000 C 
ATOM      7  O   UNL     1       0.418   3.538   1.521  0.00  0.00    +0.000 OA
ATOM      8  N   UNL     1      -0.698   1.558   1.213  0.00  0.00    +0.000 N 
ATOM      9  C   UNL     1      -1.677   0.888   1.833  0.00  0.00    +0.000 C 
ATOM     10  O   UNL     1      -2.101  -0.188   1.459  0.00  0.00    +0.000 OA
ATOM     11  N   UNL     1      -2.138   1.538   2.917  0.00  0.00    +0.000 NA
ATOM     12  C   UNL     1      -0.581   2.831   4.332  0.00  0.00    +0.000 C 
BRANCH   5  14
ATOM     13  C   UNL     1      -3.300   3.983   4.056  0.00  0.00    +0.000 C 
ATOM     14  C   UNL     1      -2.290   4.002   2.906  0.00  0.00    +0.000 C 
ENDBRANCH   5  14
ENDBRANCH   4   8
ENDBRANCH   2   4
ENDBRANCH   1   2
BRANCH   1  15
ATOM     15  C   UNL     1      -1.042   1.789  -3.568  0.00  0.00    +0.000 C 
BRANCH  15  16
ATOM     16  C   UNL     1      -0.391   1.340  -4.851  0.00  0.00    +0.000 A 
ATOM     17  N   UNL     1       0.538   2.091  -5.416  0.00  0.00    +0.000 NA
ATOM     18  C   UNL     1       1.118   1.696  -6.547  0.00  0.00    +0.000 A 
ATOM     19  N   UNL     1       0.755   0.550  -7.113  0.00  0.00    +0.000 NA
ATOM     20  C   UNL     1      -0.183  -0.200  -6.545  0.00  0.00    +0.000 A 
ATOM     21  N   UNL     1      -0.755   0.200  -5.411  0.00  0.00    +0.000 NA
ATOM     22  N   UNL     1      -0.563  -1.391  -7.128  0.00  0.00    +0.000 N 
ATOM     23  C   UNL     1      -1.598  -2.217  -6.500  0.00  0.00    +0.000 C 
ATOM     24  C   UNL     1       0.067  -1.829  -8.376  0.00  0.00    +0.000 C 
ATOM     25  N   UNL     1       2.092   2.478  -7.133  0.00  0.00    +0.000 N 
ATOM     26  H   UNL     1       2.370   3.368  -6.696  0.00  0.00    +0.000 HD
ATOM     27  H   UNL     1       2.541   2.172  -8.008  0.00  0.00    +0.000 HD
ENDBRANCH  15  16
ENDBRANCH   1  15
TORSDOF 6
ENDMDL
MODEL      619
REMARK  Name = ZINC28232129
REMARK  7 active torsions:
REMARK  status: ('A' for Active; 'I' for Inactive)
REMARK    1  A    between atoms: C_4  and  C_7
REMARK    2  A    between atoms: C_7  and  N_8
REMARK    3  A    between atoms: N_8  and  CA_9
REMARK    4  A    between atoms: CA_9  and  C_10
REMARK    5  A    between atoms: CA_9  and  C_23
REMARK    6  A    between atoms: C_10  and  C_11
REMARK    7  A    between atoms: N_13  and  C_14
REMARK                            x       y       z     vdW  Elec       q    Type
REMARK                         _______ _______ _______ _____ _____    ______ ____
ROOT
ATOM      1  CA  UNL     1       1.233   3.094   0.006  0.00  0.00    +0.000 C 
ENDROOT
BRANCH   1   2
ATOM      2  C   UNL     1       1.167   1.588  -0.006  0.00  0.00    +0.000 C 
ATOM      3  O   UNL     1       2.186   0.939  -0.016  0.00  0.00    +0.000 OA
ATOM      4  OXT UNL     1      -0.024   0.969  -0.006  0.00  0.00    +0.000 OA
ENDBRANCH   1   2
BRANCH   1   5
ATOM      5  N   UNL     1       2.638   3.522   0.003  0.00  0.00    +0.000 N 
ATOM      6  H1  UNL     1       3.195   2.860   0.560  0.00  0.00    +0.000 HD
ATOM      7  H2  UNL     1       2.708   4.457   0.431  0.00  0.00    +0.000 HD
BRANCH   5   8
ATOM      8  C   UNL     1       3.170   3.573  -1.365  0.00  0.00    +0.000 C 
BRANCH   8  12
ATOM      9  C   UNL     1       7.252   4.828  -1.260  0.00  0.00    +0.000 A 
ATOM     10  C   UNL     1       6.940   3.483  -1.183  0.00  0.00    +0.000 A 
ATOM     11  C   UNL     1       5.619   3.077  -1.217  0.00  0.00    +0.000 A 
ATOM     12  C   UNL     1       4.610   4.016  -1.328  0.00  0.00    +0.000 A 
ATOM     13  C   UNL     1       4.922   5.360  -1.410  0.00  0.00    +0.000 A 
ATOM     14  C   UNL     1       6.243   5.766  -1.370  0.00  0.00    +0.000 A 
ENDBRANCH   8  12
ENDBRANCH   5   8
ENDBRANCH   1   5
BRANCH   1  15
ATOM     15  C   UNL     1       0.540   3.625   1.263  0.00  0.00    +0.000 C 
BRANCH  15  16
ATOM     16  C   UNL     1       0.497   5.130   1.215  0.00  0.00    +0.000 C 
ATOM     17  O   UNL     1       0.974   5.721   0.269  0.00  0.00    +0.000 OA
ATOM     18  N   UNL     1      -0.071   5.821   2.223  0.00  0.00    +0.000 N 
ATOM     19  H   UNL     1      -0.538   5.319   2.992  0.00  0.00    +0.000 HD
BRANCH  18  20
ATOM     20  C   UNL     1      -0.025   7.221   2.227  0.00  0.00    +0.000 A 
ATOM     21  C   UNL     1       0.091   7.909   3.427  0.00  0.00    +0.000 A 
ATOM     22  C   UNL     1       0.140   9.290   3.431  0.00  0.00    +0.000 A 
ATOM     23  C   UNL     1       0.065   9.992   2.239  0.00  0.00    +0.000 A 
ATOM     24  C   UNL     1      -0.056   9.305   1.034  0.00  0.00    +0.000 A 
ATOM     25  C   UNL     1      -0.101   7.921   1.030  0.00  0.00    +0.000 A 
ATOM     26  O   UNL     1      -0.111  10.214   0.017  0.00  0.00    +0.000 OA
ATOM     27  C   UNL     1      -0.433  11.471   0.641  0.00  0.00    +0.000 C 
ATOM     28  O   UNL     1       0.087  11.332   1.977  0.00  0.00    +0.000 OA
ENDBRANCH  18  20
ENDBRANCH  15  16
ENDBRANCH   1  15
TORSDOF 7
ENDMDL
MODEL      620
REMARK  Name = ZINC23469605
REMARK  11 active torsions:
REMARK  status: ('A' for Active; 'I' for Inactive)
REMARK    1  A    between atoms: C_1  and  C_2
REMARK    2  A    between atoms: C_2  and  C_3
REMARK    3  A    between atoms: C_3  and  N_4
REMARK    4  A    between atoms: C_5  and  N_25
REMARK    5  A    between atoms: C_6  and  C_13
REMARK    6  A    between atoms: N_9  and  C_12
REMARK    7  A    between atoms: C_13  and  C_15
REMARK    8  A    between atoms: C_15  and  N_16
REMARK    9  A    between atoms: N_19  and  C_22
REMARK   10  A    between atoms: C_22  and  C_23
REMARK   11  A    between atoms: C_23  and  C_24
REMARK                            x       y       z     vdW  Elec       q    Type
REMARK                         _______ _______ _______ _____ _____    ______ ____
ROOT
ATOM      1  N   UNL     1      -0.104   0.944   2.457  0.00  0.00    +0.000 N 
ATOM      2  C   UNL     1       0.873   1.809   2.862  0.00  0.00    +0.000 A 
ATOM      3  C   UNL     1       1.634   1.490   3.999  0.00  0.00    +0.000 A 
ATOM      4  C   UNL     1       1.333   0.232   4.696  0.00  0.00    +0.000 A 
ATOM      5  O   UNL     1       1.960  -0.094   5.687  0.00  0.00    +0.000 OA
ATOM      6  N   UNL     1       0.348  -0.553   4.215  0.00  0.00    +0.000 N 
ATOM      7  C   UNL     1      -0.350  -0.193   3.125  0.00  0.00    +0.000 A 
ATOM      8  O   UNL     1      -1.233  -0.927   2.728  0.00  0.00    +0.000 OA
ATOM      9  C   UNL     1       0.030  -1.812   4.894  0.00  0.00    +0.000 C 
ENDROOT
BRANCH   2  10
ATOM     10  N   UNL     1       1.105   2.960   2.174  0.00  0.00    +0.000 N 
ATOM     11  H   UNL     1       0.539   3.179   1.342  0.00  0.00    +0.000 HD
ATOM     12  H   UNL     1       1.843   3.609   2.483  0.00  0.00    +0.000 HD
ENDBRANCH   2  10
BRANCH   3  13
ATOM     13  C   UNL     1       2.654   2.351   4.458  0.00  0.00    +0.000 C 
ATOM     14  O   UNL     1       2.815   3.435   3.934  0.00  0.00    +0.000 OA
BRANCH  13  15
ATOM     15  C   UNL     1       3.544   1.925   5.597  0.00  0.00    +0.000 C 
BRANCH  15  16
ATOM     16  N   UNL     1       4.516   2.988   5.883  0.00  0.00    +0.000 NA
ATOM     17  C   UNL     1       5.450   3.163   4.761  0.00  0.00    +0.000 C 
ATOM     18  C   UNL     1       6.394   4.329   5.063  0.00  0.00    +0.000 C 
ATOM     19  N   UNL     1       7.120   4.057   6.311  0.00  0.00    +0.000 N 
ATOM     20  C   UNL     1       6.187   3.882   7.433  0.00  0.00    +0.000 C 
ATOM     21  C   UNL     1       5.243   2.716   7.131  0.00  0.00    +0.000 C 
ATOM     22  H   UNL     1       7.641   3.176   6.191  0.00  0.00    +0.000 HD
BRANCH  19  23
ATOM     23  C   UNL     1       8.093   5.120   6.597  0.00  0.00    +0.000 C 
BRANCH  23  24
ATOM     24  C   UNL     1       9.190   5.107   5.531  0.00  0.00    +0.000 C 
ATOM     25  C   UNL     1      10.204   6.214   5.828  0.00  0.00    +0.000 C 
ENDBRANCH  23  24
ENDBRANCH  19  23
ENDBRANCH  15  16
ENDBRANCH  13  15
ENDBRANCH   3  13
BRANCH   1  26
ATOM     26  C   UNL     1      -0.903   1.267   1.272  0.00  0.00    +0.000 C 
BRANCH  26  28
ATOM     27  C   UNL     1      -1.061   1.029  -1.210  0.00  0.00    +0.000 C 
ATOM     28  C   UNL     1      -0.226   0.691   0.027  0.00  0.00    +0.000 C 
ENDBRANCH  26  28
ENDBRANCH   1  26
TORSDOF 8
ENDMDL
MODEL      621
REMARK  Name = ZINC05637890
REMARK  8 active torsions:
REMARK  status: ('A' for Active; 'I' for Inactive)
REMARK    1  A    between atoms: C_3  and  N_14
REMARK    2  A    between atoms: C_4  and  N_11
REMARK    3  A    between atoms: C_6  and  S_7
REMARK    4  A    between atoms: S_7  and  N_10
REMARK    5  A    between atoms: N_14  and  C_15
REMARK    6  A    between atoms: C_15  and  C_16
REMARK    7  A    between atoms: C_16  and  C_17
REMARK    8  A    between atoms: C_17  and  N_18
REMARK                            x       y       z     vdW  Elec       q    Type
REMARK                         _______ _______ _______ _____ _____    ______ ____
ROOT
ATOM      1  C   UNL     1      -0.734   3.232   2.129  0.00  0.00    +0.000 A 
ATOM      2  C   UNL     1      -1.536   3.491   3.224  0.00  0.00    +0.000 A 
ATOM      3  C   UNL     1      -2.442   2.534   3.661  0.00  0.00    +0.000 A 
ATOM      4  C   UNL     1      -2.542   1.320   2.993  0.00  0.00    +0.000 A 
ATOM      5  C   UNL     1      -1.742   1.069   1.896  0.00  0.00    +0.000 A 
ATOM      6  C   UNL     1      -0.841   2.025   1.462  0.00  0.00    +0.000 A 
ENDROOT
BRANCH   4   7
ATOM      7  N   UNL     1      -3.506   0.296   3.455  0.00  0.00    +0.000 N 
ATOM      8  O   UNL     1      -3.674  -0.720   2.805  0.00  0.00    +0.000 OA
ATOM      9  O   UNL     1      -4.131   0.471   4.486  0.00  0.00    +0.000 OA
ENDBRANCH   4   7
BRANCH   6  10
ATOM     10  S   UNL     1       0.179   1.702   0.062  0.00  0.00    +0.000 S 
ATOM     11  O   UNL     1       0.278   0.289  -0.050  0.00  0.00    +0.000 OA
ATOM     12  O   UNL     1       1.321   2.538   0.189  0.00  0.00    +0.000 OA
BRANCH  10  13
ATOM     13  N   UNL     1      -0.646   2.226  -1.275  0.00  0.00    +0.000 NA
ATOM     14  H   UNL     1      -1.180   1.556  -1.846  0.00  0.00    +0.000 HD
ATOM     15  H   UNL     1      -0.624   3.222  -1.536  0.00  0.00    +0.000 HD
ENDBRANCH  10  13
ENDBRANCH   6  10
BRANCH   3  16
ATOM     16  N   UNL     1      -3.250   2.790   4.771  0.00  0.00    +0.000 N 
ATOM     17  H   UNL     1      -3.857   2.049   5.149  0.00  0.00    +0.000 HD
BRANCH  16  18
ATOM     18  C   UNL     1      -3.235   4.114   5.398  0.00  0.00    +0.000 C 
BRANCH  18  19
ATOM     19  C   UNL     1      -4.202   4.129   6.583  0.00  0.00    +0.000 C 
BRANCH  19  20
ATOM     20  C   UNL     1      -4.187   5.511   7.237  0.00  0.00    +0.000 C 
BRANCH  20  21
ATOM     21  N   UNL     1      -5.113   5.525   8.372  0.00  0.00    +0.000 N 
ATOM     22  C   UNL     1      -6.530   5.896   8.280  0.00  0.00    +0.000 C 
ATOM     23  C   UNL     1      -7.182   5.351   9.572  0.00  0.00    +0.000 C 
ATOM     24  C   UNL     1      -5.977   5.319  10.541  0.00  0.00    +0.000 C 
ATOM     25  C   UNL     1      -4.773   5.205   9.633  0.00  0.00    +0.000 C 
ATOM     26  O   UNL     1      -3.662   4.873   9.990  0.00  0.00    +0.000 OA
ENDBRANCH  20  21
ENDBRANCH  19  20
ENDBRANCH  18  19
ENDBRANCH  16  18
ENDBRANCH   3  16
TORSDOF 8
ENDMDL
MODEL      622
REMARK  Name = ZINC06157444
REMARK  8 active torsions:
REMARK  status: ('A' for Active; 'I' for Inactive)
REMARK    1  A    between atoms: C_1  and  C_2
REMARK    2  A    between atoms: C_2  and  C_3
REMARK    3  A    between atoms: C_3  and  C_4
REMARK    4  A    between atoms: C_3  and  C_6
REMARK    5  A    between atoms: C_6  and  C_8
REMARK    6  A    between atoms: C_8  and  N_9
REMARK    7  A    between atoms: C_12  and  C_16
REMARK    8  A    between atoms: C_16  and  C_17
REMARK                            x       y       z     vdW  Elec       q    Type
REMARK                         _______ _______ _______ _____ _____    ______ ____
ROOT
ATOM      1  N   UNL     1      -3.662   2.345   0.191  0.00  0.00    +0.000 N 
ATOM      2  C   UNL     1      -4.169   2.899   1.310  0.00  0.00    +0.000 C 
ATOM      3  O   UNL     1      -3.809   2.705   2.451  0.00  0.00    +0.000 OA
ATOM      4  C   UNL     1      -5.282   3.817   0.845  0.00  0.00    +0.000 C 
ATOM      5  N   UNL     1      -5.277   3.652  -0.619  0.00  0.00    +0.000 NA
ATOM      6  C   UNL     1      -4.298   2.775  -0.904  0.00  0.00    +0.000 C 
ATOM      7  O   UNL     1      -4.023   2.413  -2.031  0.00  0.00    +0.000 OA
ENDROOT
BRANCH   4   8
ATOM      8  C   UNL     1      -6.622   3.372   1.432  0.00  0.00    +0.000 C 
BRANCH   8   9
ATOM      9  C   UNL     1      -7.710   4.306   0.967  0.00  0.00    +0.000 A 
ATOM     10  C   UNL     1      -8.180   5.376   1.627  0.00  0.00    +0.000 A 
ATOM     11  N   UNL     1      -9.164   5.981   0.894  0.00  0.00    +0.000 N 
ATOM     12  C   UNL     1      -9.356   5.298  -0.286  0.00  0.00    +0.000 A 
ATOM     13  C   UNL     1      -8.449   4.222  -0.295  0.00  0.00    +0.000 A 
ATOM     14  C   UNL     1      -8.422   3.344  -1.379  0.00  0.00    +0.000 A 
ATOM     15  C   UNL     1      -9.270   3.539  -2.433  0.00  0.00    +0.000 A 
ATOM     16  C   UNL     1     -10.162   4.602  -2.431  0.00  0.00    +0.000 A 
ATOM     17  C   UNL     1     -10.210   5.479  -1.369  0.00  0.00    +0.000 A 
ATOM     18  H   UNL     1      -9.684   6.822   1.182  0.00  0.00    +0.000 HD
ENDBRANCH   8   9
ENDBRANCH   4   8
BRANCH   1  19
ATOM     19  C   UNL     1      -2.556   1.385   0.177  0.00  0.00    +0.000 C 
BRANCH  19  20
ATOM     20  C   UNL     1      -1.249   2.126   0.054  0.00  0.00    +0.000 C 
ATOM     21  O   UNL     1      -1.243   3.338  -0.014  0.00  0.00    +0.000 OA
BRANCH  20  22
ATOM     22  C   UNL     1      -0.029   1.409   0.019  0.00  0.00    +0.000 C 
BRANCH  22  24
ATOM     23  C   UNL     1       1.187   3.595  -0.091  0.00  0.00    +0.000 C 
ATOM     24  C   UNL     1       1.174   2.091   0.010  0.00  0.00    +0.000 C 
ATOM     25  N   UNL     1       2.337   1.411   0.091  0.00  0.00    +0.000 N 
ATOM     26  H   UNL     1       3.232   1.919   0.084  0.00  0.00    +0.000 HD
ATOM     27  H   UNL     1       2.328   0.383   0.160  0.00  0.00    +0.000 HD
ENDBRANCH  22  24
BRANCH  22  28
ATOM     28  C   UNL     1      -0.041  -0.023  -0.012  0.00  0.00    +0.000 C 
ATOM     29  N   UNL     1      -0.050  -1.159  -0.038  0.00  0.00    +0.000 NA
ENDBRANCH  22  28
ENDBRANCH  20  22
ENDBRANCH  19  20
ENDBRANCH   1  19
TORSDOF 7
ENDMDL
MODEL      623
REMARK  Name = ZINC13216929
REMARK  10 active torsions:
REMARK  status: ('A' for Active; 'I' for Inactive)
REMARK    1  A    between atoms: C_1  and  N_2
REMARK    2  A    between atoms: C_4  and  N_23
REMARK    3  A    between atoms: C_6  and  C_7
REMARK    4  A    between atoms: N_9  and  C_10
REMARK    5  A    between atoms: C_13  and  C_16
REMARK    6  A    between atoms: N_18  and  C_19
REMARK    7  A    between atoms: C_19  and  C_20
REMARK    8  A    between atoms: C_20  and  N_26
REMARK    9  A    between atoms: C_21  and  N_26
REMARK   10  A    between atoms: C_22  and  N_26
REMARK                            x       y       z     vdW  Elec       q    Type
REMARK                         _______ _______ _______ _____ _____    ______ ____
ROOT
ATOM      1  C   UNL     1      -3.722   3.283   0.032  0.00  0.00    +0.000 A 
ATOM      2  C   UNL     1      -3.702   1.905  -0.161  0.00  0.00    +0.000 A 
ATOM      3  C   UNL     1      -2.504   1.228  -0.176  0.00  0.00    +0.000 A 
ATOM      4  C   UNL     1      -1.306   1.926   0.003  0.00  0.00    +0.000 A 
ATOM      5  C   UNL     1      -1.330   3.309   0.202  0.00  0.00    +0.000 A 
ATOM      6  C   UNL     1      -2.531   3.981   0.210  0.00  0.00    +0.000 A 
ENDROOT
BRANCH   1   9
ATOM      7  C   UNL     1      -6.039   3.368   0.542  0.00  0.00    +0.000 C 
ATOM      8  O   UNL     1      -5.955   2.273   1.064  0.00  0.00    +0.000 OA
ATOM      9  N   UNL     1      -4.937   3.965   0.046  0.00  0.00    +0.000 N 
ATOM     10  H   UNL     1      -4.992   4.926  -0.322  0.00  0.00    +0.000 HD
BRANCH   7  16
ATOM     11  C   UNL     1      -8.743   2.264   1.581  0.00  0.00    +0.000 C 
ATOM     12  N   UNL     1      -8.535   3.551   0.913  0.00  0.00    +0.000 N 
ATOM     13  C   UNL     1      -9.483   4.476   0.635  0.00  0.00    +0.000 A 
ATOM     14  C   UNL     1      -8.864   5.510   0.015  0.00  0.00    +0.000 A 
ATOM     15  N   UNL     1      -7.568   5.226  -0.080  0.00  0.00    +0.000 NA
ATOM     16  C   UNL     1      -7.346   4.043   0.452  0.00  0.00    +0.000 A 
BRANCH  14  17
ATOM     17  N   UNL     1      -9.518   6.747  -0.470  0.00  0.00    +0.000 N 
ATOM     18  O   UNL     1     -10.718   6.899  -0.323  0.00  0.00    +0.000 OA
ATOM     19  O   UNL     1      -8.857   7.612  -1.016  0.00  0.00    +0.000 OA
ENDBRANCH  14  17
ENDBRANCH   7  16
ENDBRANCH   1   9
BRANCH   4  20
ATOM     20  C   UNL     1      -0.019   1.203  -0.013  0.00  0.00    +0.000 C 
ATOM     21  O   UNL     1      -0.001  -0.001  -0.182  0.00  0.00    +0.000 OA
ATOM     22  N   UNL     1       1.135   1.878   0.154  0.00  0.00    +0.000 N 
ATOM     23  H   UNL     1       1.119   2.898   0.297  0.00  0.00    +0.000 HD
BRANCH  22  24
ATOM     24  C   UNL     1       2.412   1.162   0.133  0.00  0.00    +0.000 C 
BRANCH  24  25
ATOM     25  C   UNL     1       3.558   2.154   0.344  0.00  0.00    +0.000 C 
BRANCH  25  28
ATOM     26  C   UNL     1       5.104   0.874  -1.009  0.00  0.00    +0.000 C 
ATOM     27  C   UNL     1       5.939   2.308   0.755  0.00  0.00    +0.000 C 
ATOM     28  N   UNL     1       4.837   1.414   0.341  0.00  0.00    +0.000 N 
ATOM     29  H   UNL     1       4.772   0.632   1.008  0.00  0.00    +0.000 HD
ENDBRANCH  25  28
ENDBRANCH  24  25
ENDBRANCH  22  24
ENDBRANCH   4  20
TORSDOF 7
ENDMDL
MODEL      624
REMARK  Name = ZINC25940743
REMARK  8 active torsions:
REMARK  status: ('A' for Active; 'I' for Inactive)
REMARK    1  A    between atoms: C_4  and  N_9
REMARK    2  A    between atoms: C_6  and  C_7
REMARK    3  A    between atoms: N_12  and  C_15
REMARK    4  A    between atoms: C_15  and  C_16
REMARK    5  A    between atoms: C_16  and  S_17
REMARK    6  A    between atoms: S_17  and  C_20
REMARK    7  A    between atoms: C_20  and  C_21
REMARK    8  A    between atoms: C_21  and  C_22
REMARK                            x       y       z     vdW  Elec       q    Type
REMARK                         _______ _______ _______ _____ _____    ______ ____
ROOT
ATOM      1  N   UNL     1       1.097  -2.079  -0.020  0.00  0.00    +0.000 N 
ATOM      2  C   UNL     1       1.835  -2.620  -1.170  0.00  0.00    +0.000 C 
ATOM      3  C   UNL     1       1.837  -4.149  -1.098  0.00  0.00    +0.000 C 
ATOM      4  N   UNL     1       0.452  -4.639  -1.087  0.00  0.00    +0.000 NA
ATOM      5  C   UNL     1      -0.286  -4.098   0.063  0.00  0.00    +0.000 C 
ATOM      6  C   UNL     1      -0.289  -2.569  -0.009  0.00  0.00    +0.000 C 
ENDROOT
BRANCH   1  10
ATOM      7  C   UNL     1       1.156   2.042   0.002  0.00  0.00    +0.000 A 
ATOM      8  C   UNL     1      -0.016   1.315   0.009  0.00  0.00    +0.000 A 
ATOM      9  N   UNL     1       0.002  -0.004   0.002  0.00  0.00    +0.000 NA
ATOM     10  C   UNL     1       1.135  -0.690  -0.013  0.00  0.00    +0.000 A 
ATOM     11  C   UNL     1       2.361  -0.035  -0.021  0.00  0.00    +0.000 A 
ATOM     12  C   UNL     1       2.381   1.361  -0.014  0.00  0.00    +0.000 A 
BRANCH  12  13
ATOM     13  C   UNL     1       3.620   2.079  -0.022  0.00  0.00    +0.000 C 
ATOM     14  N   UNL     1       4.604   2.647  -0.029  0.00  0.00    +0.000 NA
ENDBRANCH  12  13
ENDBRANCH   1  10
BRANCH   4  15
ATOM     15  C   UNL     1       0.412  -6.107  -1.095  0.00  0.00    +0.000 C 
BRANCH  15  16
ATOM     16  C   UNL     1       0.967  -6.625  -2.422  0.00  0.00    +0.000 C 
BRANCH  16  17
ATOM     17  S   UNL     1       0.918  -8.439  -2.432  0.00  0.00    +0.000 S 
ATOM     18  O   UNL     1       1.809  -8.918  -1.434  0.00  0.00    +0.000 OA
ATOM     19  O   UNL     1      -0.441  -8.852  -2.401  0.00  0.00    +0.000 OA
BRANCH  17  20
ATOM     20  C   UNL     1       1.605  -8.850  -4.059  0.00  0.00    +0.000 C 
BRANCH  20  21
ATOM     21  C   UNL     1       1.635 -10.370  -4.231  0.00  0.00    +0.000 C 
BRANCH  21  22
ATOM     22  C   UNL     1       2.206 -10.711  -5.584  0.00  0.00    +0.000 C 
ATOM     23  O   UNL     1       2.555  -9.826  -6.336  0.00  0.00    +0.000 OA
ATOM     24  N   UNL     1       2.329 -12.001  -5.957  0.00  0.00    +0.000 N 
ATOM     25  H   UNL     1       2.032 -12.752  -5.319  0.00  0.00    +0.000 HD
ATOM     26  H   UNL     1       2.719 -12.234  -6.881  0.00  0.00    +0.000 HD
ENDBRANCH  21  22
ENDBRANCH  20  21
ENDBRANCH  17  20
ENDBRANCH  16  17
ENDBRANCH  15  16
ENDBRANCH   4  15
TORSDOF 8
ENDMDL
MODEL      625
REMARK  Name = ZINC16900820
REMARK  7 active torsions:
REMARK  status: ('A' for Active; 'I' for Inactive)
REMARK    1  A    between atoms: C_2  and  C_20
REMARK    2  A    between atoms: C_10  and  S_13
REMARK    3  A    between atoms: S_13  and  C_14
REMARK    4  A    between atoms: C_14  and  C_15
REMARK    5  A    between atoms: C_15  and  C_16
REMARK    6  A    between atoms: C_15  and  N_19
REMARK    7  A    between atoms: C_20  and  C_21
REMARK                            x       y       z     vdW  Elec       q    Type
REMARK                         _______ _______ _______ _____ _____    ______ ____
ROOT
ATOM      1  C   UNK     1      -1.130   0.698   2.200  0.00  0.00    +0.000 A 
ATOM      2  C   UNK     1      -0.718   1.572   1.248  0.00  0.00    +0.000 A 
ATOM      3  N   UNK     1      -0.944   2.857   1.435  0.00  0.00    +0.000 NA
ATOM      4  C   UNK     1      -1.565   3.291   2.514  0.00  0.00    +0.000 A 
ATOM      5  S   UNK     1      -1.870   1.817   3.380  0.00  0.00    +0.000 S 
ATOM      6  N   UNK     1      -1.890   4.599   2.870  0.00  0.00    +0.000 N 
ATOM      7  C   UNK     1      -1.595   5.654   2.100  0.00  0.00    +0.000 C 
ATOM      8  O   UNK     1      -1.026   5.606   1.031  0.00  0.00    +0.000 OA
ATOM      9  C   UNK     1      -2.084   6.916   2.777  0.00  0.00    +0.000 C 
ATOM     10  C   UNK     1      -2.720   6.402   4.084  0.00  0.00    +0.000 C 
ATOM     11  C   UNK     1      -2.529   4.903   4.006  0.00  0.00    +0.000 C 
ATOM     12  O   UNK     1      -2.893   4.104   4.842  0.00  0.00    +0.000 OA
ENDROOT
BRANCH  10  13
ATOM     13  S   UNK     1      -4.486   6.812   4.139  0.00  0.00    +0.000 S 
BRANCH  13  14
ATOM     14  C   UNK     1      -5.011   6.271   5.789  0.00  0.00    +0.000 C 
BRANCH  14  15
ATOM     15  C   UNK     1      -6.502   6.563   5.971  0.00  0.00    +0.000 C 
BRANCH  15  16
ATOM     16  N   UNK     1      -7.279   5.747   5.029  0.00  0.00    +0.000 N 
ATOM     17  H   UNK     1      -7.101   4.748   5.210  0.00  0.00    +0.000 HD
ATOM     18  H   UNK     1      -7.001   5.975   4.064  0.00  0.00    +0.000 HD
ATOM     19  H   UNK     1      -8.283   5.942   5.150  0.00  0.00    +0.000 HD
ENDBRANCH  15  16
BRANCH  15  20
ATOM     20  C   UNK     1      -6.911   6.228   7.382  0.00  0.00    +0.000 C 
ATOM     21  O   UNK     1      -7.470   5.182   7.617  0.00  0.00    +0.000 OA
ATOM     22  O   UNK     1      -6.656   7.090   8.378  0.00  0.00    +0.000 OA
ENDBRANCH  15  20
ENDBRANCH  14  15
ENDBRANCH  13  14
ENDBRANCH  10  13
BRANCH   2  23
ATOM     23  C   UNK     1      -0.013   1.086   0.008  0.00  0.00    +0.000 C 
BRANCH  23  24
ATOM     24  C   UNK     1      -0.742   1.585  -1.213  0.00  0.00    +0.000 C 
ATOM     25  O   UNK     1      -1.732   2.266  -1.089  0.00  0.00    +0.000 OA
ATOM     26  O   UNK     1      -0.290   1.274  -2.438  0.00  0.00    +0.000 OA
ENDBRANCH  23  24
ENDBRANCH   2  23
TORSDOF 7
ENDMDL
MODEL      626
REMARK  Name = ZINC02345436
REMARK  9 active torsions:
REMARK  status: ('A' for Active; 'I' for Inactive)
REMARK    1  A    between atoms: C_1  and  C_2
REMARK    2  A    between atoms: C_2  and  O_3
REMARK    3  A    between atoms: O_3  and  C_4
REMARK    4  A    between atoms: C_4  and  C_6
REMARK    5  A    between atoms: C_6  and  S_7
REMARK    6  A    between atoms: S_7  and  C_8
REMARK    7  A    between atoms: N_12  and  C_13
REMARK    8  A    between atoms: C_13  and  C_14
REMARK    9  A    between atoms: N_22  and  C_23
REMARK                            x       y       z     vdW  Elec       q    Type
REMARK                         _______ _______ _______ _____ _____    ______ ____
ROOT
ATOM      1  C   UNL     1      -0.836  -3.014   1.085  0.00  0.00    +0.000 A 
ATOM      2  N   UNL     1      -0.593  -4.246   0.685  0.00  0.00    +0.000 NA
ATOM      3  C   UNL     1      -0.593  -4.301  -0.647  0.00  0.00    +0.000 A 
ATOM      4  C   UNL     1      -0.859  -3.020  -1.120  0.00  0.00    +0.000 A 
ATOM      5  N   UNL     1      -1.005  -2.212  -0.000  0.00  0.00    +0.000 N 
ATOM      6  C   UNL     1      -0.922  -2.799  -2.507  0.00  0.00    +0.000 A 
ATOM      7  O   UNL     1      -1.151  -1.685  -2.944  0.00  0.00    +0.000 OA
ATOM      8  N   UNL     1      -0.727  -3.834  -3.350  0.00  0.00    +0.000 N 
ATOM      9  C   UNL     1      -0.473  -5.069  -2.883  0.00  0.00    +0.000 A 
ATOM     10  O   UNL     1      -0.302  -5.978  -3.672  0.00  0.00    +0.000 OA
ATOM     11  N   UNL     1      -0.396  -5.322  -1.563  0.00  0.00    +0.000 N 
ATOM     12  C   UNL     1      -0.121  -6.683  -1.093  0.00  0.00    +0.000 C 
ATOM     13  H   UNL     1      -0.773  -3.676  -4.367  0.00  0.00    +0.000 HD
ENDROOT
BRANCH   5  14
ATOM     14  C   UNL     1      -1.293  -0.775   0.010  0.00  0.00    +0.000 C 
BRANCH  14  15
ATOM     15  C   UNL     1       0.002  -0.004   0.002  0.00  0.00    +0.000 C 
ATOM     16  O   UNL     1       1.060  -0.596  -0.011  0.00  0.00    +0.000 OA
ATOM     17  N   UNL     1      -0.016   1.344   0.009  0.00  0.00    +0.000 N 
ATOM     18  H   UNL     1      -0.915   1.846   0.021  0.00  0.00    +0.000 HD
ATOM     19  H   UNL     1       0.869   1.871   0.004  0.00  0.00    +0.000 HD
ENDBRANCH  14  15
ENDBRANCH   5  14
BRANCH   1  20
ATOM     20  S   UNL     1      -0.928  -2.488   2.765  0.00  0.00    +0.000 S 
BRANCH  20  21
ATOM     21  C   UNL     1      -0.607  -4.059   3.604  0.00  0.00    +0.000 C 
BRANCH  21  22
ATOM     22  C   UNL     1      -0.638  -3.847   5.096  0.00  0.00    +0.000 C 
ATOM     23  O   UNL     1      -0.855  -2.747   5.545  0.00  0.00    +0.000 OA
BRANCH  22  24
ATOM     24  O   UNL     1      -0.425  -4.881   5.925  0.00  0.00    +0.000 OA
BRANCH  24  26
ATOM     25  C   UNL     1      -0.205  -5.893   8.129  0.00  0.00    +0.000 C 
ATOM     26  C   UNL     1      -0.469  -4.603   7.349  0.00  0.00    +0.000 C 
ENDBRANCH  24  26
ENDBRANCH  22  24
ENDBRANCH  21  22
ENDBRANCH  20  21
ENDBRANCH   1  20
TORSDOF 7
ENDMDL
MODEL      627
REMARK  Name = ZINC32036349
REMARK  7 active torsions:
REMARK  status: ('A' for Active; 'I' for Inactive)
REMARK    1  A    between atoms: N_5  and  C_6
REMARK    2  A    between atoms: C_6  and  C_7
REMARK    3  A    between atoms: C_7  and  O_8
REMARK    4  A    between atoms: O_8  and  C_9
REMARK    5  A    between atoms: C_9  and  P_10
REMARK    6  A    between atoms: P_10  and  O_13
REMARK    7  A    between atoms: C_17  and  N_18
REMARK                            x       y       z     vdW  Elec       q    Type
REMARK                         _______ _______ _______ _____ _____    ______ ____
ROOT
ATOM      1  C   UNL     1       1.309  -0.395  -0.013  0.00  0.00    +0.000 A 
ATOM      2  N   UNL     1       2.085   0.649  -0.014  0.00  0.00    +0.000 NA
ATOM      3  C   UNL     1       1.328   1.774  -0.001  0.00  0.00    +0.000 A 
ATOM      4  C   UNL     1      -0.017   1.368   0.010  0.00  0.00    +0.000 A 
ATOM      5  N   UNL     1       0.002  -0.004   0.002  0.00  0.00    +0.000 N 
ATOM      6  N   UNL     1      -0.972   2.292   0.028  0.00  0.00    +0.000 NA
ATOM      7  C   UNL     1      -0.664   3.579   0.028  0.00  0.00    +0.000 A 
ATOM      8  N   UNL     1       0.592   4.006   0.019  0.00  0.00    +0.000 NA
ATOM      9  C   UNL     1       1.608   3.151   0.004  0.00  0.00    +0.000 A 
ATOM     10  N   UNL     1      -1.688   4.511   0.043  0.00  0.00    +0.000 N 
ATOM     11  H   UNL     1      -2.674   4.212   0.054  0.00  0.00    +0.000 HD
ATOM     12  H   UNL     1      -1.459   5.515   0.043  0.00  0.00    +0.000 HD
ENDROOT
BRANCH   9  13
ATOM     13  N   UNL     1       2.915   3.606  -0.005  0.00  0.00    +0.000 N 
ATOM     14  C   UNL     1       3.673   3.055   1.127  0.00  0.00    +0.000 C 
ATOM     15  C   UNL     1       5.125   3.536   1.045  0.00  0.00    +0.000 C 
ATOM     16  O   UNL     1       5.148   4.966   1.022  0.00  0.00    +0.000 OA
ATOM     17  C   UNL     1       4.419   5.536  -0.069  0.00  0.00    +0.000 C 
ATOM     18  C   UNL     1       2.961   5.076   0.002  0.00  0.00    +0.000 C 
ENDBRANCH   9  13
BRANCH   5  19
ATOM     19  C   UNL     1      -1.167  -0.887   0.008  0.00  0.00    +0.000 C 
BRANCH  19  20
ATOM     20  C   UNL     1      -1.663  -1.086  -1.426  0.00  0.00    +0.000 C 
BRANCH  20  21
ATOM     21  O   UNL     1      -2.803  -1.947  -1.421  0.00  0.00    +0.000 OA
BRANCH  21  22
ATOM     22  C   UNL     1      -3.347  -2.200  -2.717  0.00  0.00    +0.000 C 
BRANCH  22  23
ATOM     23  P   UNL     1      -2.270  -3.368  -3.611  0.00  0.00    +0.000 P 
ATOM     24  O   UNL     1      -2.185  -4.638  -2.856  0.00  0.00    +0.000 OA
ATOM     25  O   UNL     1      -2.883  -3.652  -5.073  0.00  0.00    +0.000 OA
BRANCH  23  26
ATOM     26  O   UNL     1      -0.798  -2.733  -3.761  0.00  0.00    +0.000 OA
ATOM     27  H   UNL     1      -0.420  -2.558  -2.863  0.00  0.00    +0.000 HD
ENDBRANCH  23  26
ENDBRANCH  22  23
ENDBRANCH  21  22
ENDBRANCH  20  21
ENDBRANCH  19  20
ENDBRANCH   5  19
TORSDOF 7
ENDMDL
MODEL      628
REMARK  Name = ZINC29019719
REMARK  8 active torsions:
REMARK  status: ('A' for Active; 'I' for Inactive)
REMARK    1  A    between atoms: C_1  and  O_2
REMARK    2  A    between atoms: O_2  and  C_3
REMARK    3  A    between atoms: C_3  and  C_4
REMARK    4  A    between atoms: C_4  and  N_5
REMARK    5  A    between atoms: N_5  and  S_6
REMARK    6  A    between atoms: S_6  and  C_9
REMARK    7  A    between atoms: C_12  and  C_15
REMARK    8  A    between atoms: N_17  and  N_18
REMARK                            x       y       z     vdW  Elec       q    Type
REMARK                         _______ _______ _______ _____ _____    ______ ____
ROOT
ATOM      1  C   UNL     1      -0.927   1.900   1.439  0.00  0.00    +0.000 A 
ATOM      2  C   UNL     1      -0.715   3.146   2.002  0.00  0.00    +0.000 A 
ATOM      3  C   UNL     1      -1.427   3.533   3.118  0.00  0.00    +0.000 A 
ATOM      4  C   UNL     1      -2.356   2.660   3.686  0.00  0.00    +0.000 A 
ATOM      5  C   UNL     1      -2.561   1.402   3.117  0.00  0.00    +0.000 A 
ATOM      6  C   UNL     1      -1.846   1.030   1.998  0.00  0.00    +0.000 A 
ENDROOT
BRANCH   4   7
ATOM      7  C   UNL     1      -3.120   3.066   4.885  0.00  0.00    +0.000 C 
ATOM      8  O   UNL     1      -3.928   2.303   5.378  0.00  0.00    +0.000 OA
ATOM      9  N   UNL     1      -2.919   4.281   5.432  0.00  0.00    +0.000 N 
ATOM     10  H   UNL     1      -2.234   4.927   5.015  0.00  0.00    +0.000 HD
BRANCH   9  11
ATOM     11  N   UNL     1      -3.643   4.666   6.569  0.00  0.00    +0.000 N 
ATOM     12  C   UNL     1      -4.767   5.617   6.617  0.00  0.00    +0.000 C 
ATOM     13  C   UNL     1      -5.151   5.641   8.083  0.00  0.00    +0.000 C 
ATOM     14  O   UNL     1      -6.038   6.289   8.597  0.00  0.00    +0.000 OA
ATOM     15  N   UNL     1      -4.300   4.796   8.696  0.00  0.00    +0.000 N 
ATOM     16  C   UNL     1      -3.443   4.243   7.830  0.00  0.00    +0.000 C 
ATOM     17  O   UNL     1      -2.580   3.448   8.147  0.00  0.00    +0.000 OA
ATOM     18  H   UNL     1      -4.308   4.600   9.707  0.00  0.00    +0.000 HD
ENDBRANCH   9  11
ENDBRANCH   4   7
BRANCH   1  19
ATOM     19  S   UNL     1      -0.017   1.417   0.010  0.00  0.00    +0.000 S 
ATOM     20  O   UNL     1       0.002  -0.004   0.002  0.00  0.00    +0.000 OA
ATOM     21  O   UNL     1       1.172   2.195   0.003  0.00  0.00    +0.000 OA
BRANCH  19  22
ATOM     22  N   UNL     1      -0.897   1.885  -1.312  0.00  0.00    +0.000 NA
ATOM     23  H   UNL     1      -1.285   1.176  -1.951  0.00  0.00    +0.000 HD
BRANCH  22  24
ATOM     24  C   UNL     1      -1.125   3.309  -1.574  0.00  0.00    +0.000 C 
BRANCH  24  25
ATOM     25  C   UNL     1      -1.622   3.491  -3.009  0.00  0.00    +0.000 C 
BRANCH  25  27
ATOM     26  C   UNL     1      -3.458   2.983  -4.464  0.00  0.00    +0.000 C 
ATOM     27  O   UNL     1      -2.901   2.871  -3.152  0.00  0.00    +0.000 OA
ENDBRANCH  25  27
ENDBRANCH  24  25
ENDBRANCH  22  24
ENDBRANCH  19  22
ENDBRANCH   1  19
TORSDOF 7
ENDMDL
MODEL      629
REMARK  Name = ZINC13693206
REMARK  7 active torsions:
REMARK  status: ('A' for Active; 'I' for Inactive)
REMARK    1  A    between atoms: C_1  and  C_2
REMARK    2  A    between atoms: C_2  and  O_3
REMARK    3  A    between atoms: O_3  and  C_4
REMARK    4  A    between atoms: C_7  and  N_10
REMARK    5  A    between atoms: C_11  and  C_13
REMARK    6  A    between atoms: C_13  and  C_14
REMARK    7  A    between atoms: C_25  and  N_26
REMARK                            x       y       z     vdW  Elec       q    Type
REMARK                         _______ _______ _______ _____ _____    ______ ____
ROOT
ATOM      1  C   UNL     1      -3.447  -0.401  -4.297  0.00  0.00    +0.000 C 
ENDROOT
BRANCH   1   2
ATOM      2  C   UNL     1      -1.958  -0.111  -4.099  0.00  0.00    +0.000 A 
ATOM      3  C   UNL     1      -1.307  -1.191  -3.257  0.00  0.00    +0.000 A 
ATOM      4  O   UNL     1      -1.218  -2.373  -3.525  0.00  0.00    +0.000 OA
ATOM      5  N   UNL     1      -0.847  -0.580  -2.169  0.00  0.00    +0.000 NA
ATOM      6  C   UNL     1      -1.103   0.711  -2.170  0.00  0.00    +0.000 A 
ATOM      7  N   UNL     1      -1.768   1.107  -3.290  0.00  0.00    +0.000 N 
ATOM      8  N   UNL     1      -0.738   1.557  -1.167  0.00  0.00    +0.000 N 
ATOM      9  C   UNL     1      -0.019   1.059   0.016  0.00  0.00    +0.000 C 
ATOM     10  C   UNL     1      -0.746   1.547   1.274  0.00  0.00    +0.000 C 
ATOM     11  C   UNL     1      -1.743   3.403   0.068  0.00  0.00    +0.000 C 
ATOM     12  C   UNL     1      -1.052   2.992  -1.237  0.00  0.00    +0.000 C 
ATOM     13  C   UNL     1      -1.448   3.533   2.467  0.00  0.00    +0.000 C 
ATOM     14  N   UNL     1      -0.878   3.019   1.205  0.00  0.00    +0.000 NA
ATOM     15  H   UNL     1      -2.076   2.061  -3.524  0.00  0.00    +0.000 HD
ENDBRANCH   1   2
BRANCH   1  17
ATOM     16  N   UNL     1      -5.383   0.659  -5.414  0.00  0.00    +0.000 N 
ATOM     17  C   UNL     1      -4.070   0.703  -5.112  0.00  0.00    +0.000 C 
ATOM     18  O   UNL     1      -3.390   1.630  -5.497  0.00  0.00    +0.000 OA
ATOM     19  H   UNL     1      -5.945  -0.162  -5.149  0.00  0.00    +0.000 HD
BRANCH  16  23
ATOM     20  C   UNL     1      -7.168   3.850  -7.420  0.00  0.00    +0.000 A 
ATOM     21  C   UNL     1      -5.859   3.493  -7.711  0.00  0.00    +0.000 A 
ATOM     22  C   UNL     1      -5.267   2.437  -7.047  0.00  0.00    +0.000 A 
ATOM     23  C   UNL     1      -5.982   1.732  -6.088  0.00  0.00    +0.000 A 
ATOM     24  C   UNL     1      -7.294   2.086  -5.801  0.00  0.00    +0.000 A 
ATOM     25  C   UNL     1      -7.883   3.146  -6.462  0.00  0.00    +0.000 A 
BRANCH  20  26
ATOM     26  O   UNL     1      -7.749   4.890  -8.074  0.00  0.00    +0.000 OA
BRANCH  26  28
ATOM     27  C   UNL     1      -9.580   6.392  -8.558  0.00  0.00    +0.000 C 
ATOM     28  C   UNL     1      -9.099   5.203  -7.725  0.00  0.00    +0.000 C 
ENDBRANCH  26  28
ENDBRANCH  20  26
ENDBRANCH  16  23
ENDBRANCH   1  17
TORSDOF 5
ENDMDL
MODEL      630
REMARK  Name = ZINC14116598
REMARK  8 active torsions:
REMARK  status: ('A' for Active; 'I' for Inactive)
REMARK    1  A    between atoms: C_1  and  C_2
REMARK    2  A    between atoms: C_2  and  C_3
REMARK    3  A    between atoms: C_5  and  S_8
REMARK    4  A    between atoms: S_8  and  C_9
REMARK    5  A    between atoms: C_9  and  C_10
REMARK    6  A    between atoms: N_12  and  N_13
REMARK    7  A    between atoms: C_14  and  C_16
REMARK    8  A    between atoms: C_16  and  C_17
REMARK                            x       y       z     vdW  Elec       q    Type
REMARK                         _______ _______ _______ _____ _____    ______ ____
ROOT
ATOM      1  C   UNL     1      -3.675   2.765   6.612  0.00  0.00    +0.000 C 
ATOM      2  O   UNL     1      -3.830   1.674   7.121  0.00  0.00    +0.000 OA
ATOM      3  N   UNL     1      -4.122   3.870   7.240  0.00  0.00    +0.000 N 
ATOM      4  H   UNL     1      -3.990   4.796   6.809  0.00  0.00    +0.000 HD
ENDROOT
BRANCH   3   5
ATOM      5  N   UNL     1      -4.765   3.760   8.480  0.00  0.00    +0.000 N 
ATOM      6  C   UNL     1      -5.212   4.866   9.108  0.00  0.00    +0.000 C 
ATOM      7  O   UNL     1      -5.057   5.957   8.600  0.00  0.00    +0.000 OA
ATOM      8  H   UNL     1      -4.897   2.834   8.912  0.00  0.00    +0.000 HD
BRANCH   6   9
ATOM      9  C   UNL     1      -5.904   4.748  10.441  0.00  0.00    +0.000 C 
BRANCH   9  10
ATOM     10  C   UNL     1      -6.308   6.140  10.932  0.00  0.00    +0.000 C 
ATOM     11  C   UNL     1      -7.350   6.737   9.972  0.00  0.00    +0.000 C 
ATOM     12  C   UNL     1      -7.969   7.993  10.649  0.00  0.00    +0.000 C 
ATOM     13  S   UNL     1      -8.140   7.391  12.382  0.00  0.00    +0.000 S 
ATOM     14  O   UNL     1      -9.437   6.835  12.552  0.00  0.00    +0.000 OA
ATOM     15  O   UNL     1      -7.692   8.406  13.270  0.00  0.00    +0.000 OA
ATOM     16  C   UNL     1      -6.904   6.030  12.356  0.00  0.00    +0.000 C 
ENDBRANCH   9  10
ENDBRANCH   6   9
ENDBRANCH   3   5
BRANCH   1  17
ATOM     17  C   UNL     1      -2.983   2.883   5.279  0.00  0.00    +0.000 C 
BRANCH  17  18
ATOM     18  S   UNL     1      -2.506   1.236   4.699  0.00  0.00    +0.000 S 
BRANCH  18  21
ATOM     19  C   UNL     1      -0.718   1.572   1.248  0.00  0.00    +0.000 A 
ATOM     20  N   UNL     1      -1.180   0.795   2.275  0.00  0.00    +0.000 N 
ATOM     21  C   UNL     1      -1.742   1.661   3.169  0.00  0.00    +0.000 A 
ATOM     22  N   UNL     1      -1.605   2.869   2.673  0.00  0.00    +0.000 NA
ATOM     23  N   UNL     1      -0.996   2.810   1.543  0.00  0.00    +0.000 NA
ATOM     24  H   UNL     1      -1.116  -0.230   2.357  0.00  0.00    +0.000 HD
BRANCH  19  26
ATOM     25  C   UNL     1      -0.753   1.593  -1.232  0.00  0.00    +0.000 C 
ATOM     26  C   UNL     1      -0.013   1.086   0.008  0.00  0.00    +0.000 C 
ENDBRANCH  19  26
ENDBRANCH  18  21
ENDBRANCH  17  18
ENDBRANCH   1  17
TORSDOF 7
ENDMDL
MODEL      631
REMARK  Name = ZINC08386312
REMARK  13 active torsions:
REMARK  status: ('A' for Active; 'I' for Inactive)
REMARK    1  A    between atoms: C_1  and  O_2
REMARK    2  A    between atoms: O_2  and  C_3
REMARK    3  A    between atoms: C_6  and  C_11
REMARK    4  A    between atoms: C_8  and  O_9
REMARK    5  A    between atoms: O_9  and  C_10
REMARK    6  A    between atoms: N_13  and  C_14
REMARK    7  A    between atoms: C_14  and  C_15
REMARK    8  A    between atoms: C_15  and  C_16
REMARK    9  A    between atoms: C_16  and  C_17
REMARK   10  A    between atoms: C_17  and  C_18
REMARK   11  A    between atoms: C_18  and  C_19
REMARK   12  A    between atoms: N_21  and  N_22
REMARK   13  A    between atoms: C_23  and  C_24
REMARK                            x       y       z     vdW  Elec       q    Type
REMARK                         _______ _______ _______ _____ _____    ______ ____
ROOT
ATOM      1  C   UNL     1       6.076   2.496   0.505  0.00  0.00    +0.000 C 
ENDROOT
BRANCH   1   2
ATOM      2  C   UNL     1       7.430   1.840   0.786  0.00  0.00    +0.000 C 
BRANCH   2   3
ATOM      3  C   UNL     1       8.535   2.739   0.293  0.00  0.00    +0.000 C 
ATOM      4  O   UNL     1       8.266   3.799  -0.231  0.00  0.00    +0.000 OA
ATOM      5  N   UNL     1       9.822   2.364   0.435  0.00  0.00    +0.000 N 
ATOM      6  H   UNL     1      10.050   1.463   0.880  0.00  0.00    +0.000 HD
BRANCH   5   7
ATOM      7  N   UNL     1      10.849   3.199  -0.023  0.00  0.00    +0.000 NA
ATOM      8  C   UNL     1      12.082   2.786  -0.000  0.00  0.00    +0.000 C 
BRANCH   8   9
ATOM      9  C   UNL     1      12.374   1.349  -0.010  0.00  0.00    +0.000 A 
ATOM     10  C   UNL     1      13.664   0.897   0.181  0.00  0.00    +0.000 A 
ATOM     11  C   UNL     1      13.906  -0.491   0.170  0.00  0.00    +0.000 A 
ATOM     12  O   UNL     1      15.035  -0.917   0.341  0.00  0.00    +0.000 OA
ATOM     13  N   UNL     1      12.884  -1.343  -0.037  0.00  0.00    +0.000 N 
ATOM     14  C   UNL     1      11.634  -0.886  -0.228  0.00  0.00    +0.000 A 
ATOM     15  O   UNL     1      10.730  -1.679  -0.413  0.00  0.00    +0.000 OA
ATOM     16  N   UNL     1      11.364   0.432  -0.218  0.00  0.00    +0.000 N 
ATOM     17  H   UNL     1      13.062  -2.357  -0.050  0.00  0.00    +0.000 HD
ATOM     18  H   UNL     1      10.398   0.758  -0.366  0.00  0.00    +0.000 HD
ENDBRANCH   8   9
ENDBRANCH   5   7
ENDBRANCH   2   3
ENDBRANCH   1   2
BRANCH   1  19
ATOM     19  C   UNL     1       4.954   1.584   1.006  0.00  0.00    +0.000 C 
BRANCH  19  20
ATOM     20  C   UNL     1       3.600   2.239   0.725  0.00  0.00    +0.000 C 
BRANCH  20  21
ATOM     21  C   UNL     1       2.479   1.327   1.226  0.00  0.00    +0.000 C 
BRANCH  21  24
ATOM     22  C   UNL     1       0.044   1.329   1.314  0.00  0.00    +0.000 C 
ATOM     23  O   UNL     1       0.092   0.243   1.859  0.00  0.00    +0.000 OA
ATOM     24  N   UNL     1       1.183   1.955   0.957  0.00  0.00    +0.000 N 
ATOM     25  H   UNL     1       1.142   2.875   0.495  0.00  0.00    +0.000 HD
BRANCH  22  29
ATOM     26  C   UNL     1      -3.714   3.147   0.517  0.00  0.00    +0.000 A 
ATOM     27  C   UNL     1      -2.540   3.793   0.156  0.00  0.00    +0.000 A 
ATOM     28  C   UNL     1      -1.319   3.209   0.417  0.00  0.00    +0.000 A 
ATOM     29  C   UNL     1      -1.262   1.959   1.038  0.00  0.00    +0.000 A 
ATOM     30  C   UNL     1      -2.444   1.308   1.402  0.00  0.00    +0.000 A 
ATOM     31  C   UNL     1      -3.664   1.902   1.142  0.00  0.00    +0.000 A 
BRANCH  26  33
ATOM     32  C   UNL     1      -4.892   5.006  -0.380  0.00  0.00    +0.000 C 
ATOM     33  O   UNL     1      -4.914   3.730   0.262  0.00  0.00    +0.000 OA
ENDBRANCH  26  33
BRANCH  31  34
ATOM     34  O   UNL     1      -4.816   1.272   1.495  0.00  0.00    +0.000 OA
ATOM     35  C   UNL     1      -4.691  -0.002   2.131  0.00  0.00    +0.000 C 
ENDBRANCH  31  34
ENDBRANCH  22  29
ENDBRANCH  21  24
ENDBRANCH  20  21
ENDBRANCH  19  20
ENDBRANCH   1  19
TORSDOF 11
ENDMDL
MODEL      632
REMARK  Name = ZINC21770785
REMARK  12 active torsions:
REMARK  status: ('A' for Active; 'I' for Inactive)
REMARK    1  A    between atoms: C_1  and  C_2
REMARK    2  A    between atoms: C_2  and  N_3
REMARK    3  A    between atoms: N_3  and  C_4
REMARK    4  A    between atoms: C_4  and  C_5
REMARK    5  A    between atoms: C_10  and  C_12
REMARK    6  A    between atoms: C_12  and  C_13
REMARK    7  A    between atoms: N_15  and  C_16
REMARK    8  A    between atoms: C_20  and  C_22
REMARK    9  A    between atoms: N_24  and  N_25
REMARK   10  A    between atoms: C_26  and  O_28
REMARK   11  A    between atoms: O_28  and  C_29
REMARK   12  A    between atoms: C_29  and  C_30
REMARK                            x       y       z     vdW  Elec       q    Type
REMARK                         _______ _______ _______ _____ _____    ______ ____
ROOT
ATOM      1  C   UNL     1      -1.169  -2.105  -0.004  0.00  0.00    +0.000 A 
ATOM      2  C   UNL     1      -1.051  -0.942   0.747  0.00  0.00    +0.000 A 
ATOM      3  C   UNL     1       0.130  -0.223   0.736  0.00  0.00    +0.000 A 
ATOM      4  C   UNL     1       1.202  -0.660  -0.015  0.00  0.00    +0.000 A 
ATOM      5  C   UNL     1       1.092  -1.824  -0.778  0.00  0.00    +0.000 A 
ATOM      6  C   UNL     1      -0.100  -2.549  -0.767  0.00  0.00    +0.000 A 
ENDROOT
BRANCH   5   7
ATOM      7  C   UNL     1       2.236  -2.290  -1.589  0.00  0.00    +0.000 C 
ATOM      8  O   UNL     1       2.142  -3.309  -2.244  0.00  0.00    +0.000 OA
ATOM      9  N   UNL     1       3.387  -1.588  -1.598  0.00  0.00    +0.000 N 
ATOM     10  H   UNL     1       3.469  -0.726  -1.039  0.00  0.00    +0.000 HD
BRANCH   9  11
ATOM     11  N   UNL     1       4.471  -2.030  -2.367  0.00  0.00    +0.000 N 
ATOM     12  C   UNL     1       5.622  -1.327  -2.376  0.00  0.00    +0.000 C 
ATOM     13  O   UNL     1       6.562  -1.711  -3.042  0.00  0.00    +0.000 OA
ATOM     14  H   UNL     1       4.390  -2.891  -2.925  0.00  0.00    +0.000 HD
BRANCH  12  15
ATOM     15  O   UNL     1       5.729  -0.201  -1.645  0.00  0.00    +0.000 OA
BRANCH  15  16
ATOM     16  C   UNL     1       6.997   0.504  -1.703  0.00  0.00    +0.000 C 
ATOM     17  C   UNL     1       6.929   1.749  -0.816  0.00  0.00    +0.000 C 
ENDBRANCH  15  16
ENDBRANCH  12  15
ENDBRANCH   9  11
ENDBRANCH   5   7
BRANCH   1  20
ATOM     18  C   UNL     1      -2.344  -4.172  -0.099  0.00  0.00    +0.000 C 
ATOM     19  O   UNL     1      -1.284  -4.762  -0.113  0.00  0.00    +0.000 OA
ATOM     20  N   UNL     1      -2.366  -2.829   0.010  0.00  0.00    +0.000 N 
ATOM     21  H   UNL     1      -3.265  -2.335   0.103  0.00  0.00    +0.000 HD
BRANCH  18  22
ATOM     22  C   UNL     1      -3.635  -4.942  -0.204  0.00  0.00    +0.000 C 
BRANCH  22  28
ATOM     23  N   UNL     1      -3.673  -8.520  -3.761  0.00  0.00    +0.000 N 
ATOM     24  C   UNL     1      -3.696  -7.873  -2.561  0.00  0.00    +0.000 A 
ATOM     25  N   UNL     1      -4.651  -7.901  -1.646  0.00  0.00    +0.000 NA
ATOM     26  C   UNL     1      -4.604  -7.251  -0.513  0.00  0.00    +0.000 A 
ATOM     27  O   UNL     1      -5.496  -7.293   0.312  0.00  0.00    +0.000 OA
ATOM     28  C   UNL     1      -3.330  -6.437  -0.316  0.00  0.00    +0.000 A 
ATOM     29  S   UNL     1      -2.477  -6.831  -1.895  0.00  0.00    +0.000 S 
BRANCH  23  31
ATOM     30  C   UNL     1      -5.825  -8.522  -4.923  0.00  0.00    +0.000 C 
ATOM     31  C   UNL     1      -4.801  -9.365  -4.159  0.00  0.00    +0.000 C 
ENDBRANCH  23  31
BRANCH  23  32
ATOM     32  C   UNL     1      -2.520  -8.370  -4.652  0.00  0.00    +0.000 C 
ATOM     33  C   UNL     1      -1.488  -9.455  -4.338  0.00  0.00    +0.000 C 
ENDBRANCH  23  32
ENDBRANCH  22  28
ENDBRANCH  18  22
ENDBRANCH   1  20
TORSDOF 9
ENDMDL
MODEL      633
REMARK  Name = ZINC28967777
REMARK  15 active torsions:
REMARK  status: ('A' for Active; 'I' for Inactive)
REMARK    1  A    between atoms: C_1  and  C_2
REMARK    2  A    between atoms: C_4  and  C_31
REMARK    3  A    between atoms: C_5  and  N_9
REMARK    4  A    between atoms: C_6  and  C_8
REMARK    5  A    between atoms: C_10  and  C_12
REMARK    6  A    between atoms: C_12  and  N_13
REMARK    7  A    between atoms: N_13  and  C_14
REMARK    8  A    between atoms: N_13  and  C_15
REMARK    9  A    between atoms: C_15  and  C_16
REMARK   10  A    between atoms: C_16  and  C_18
REMARK   11  A    between atoms: C_19  and  N_30
REMARK   12  A    between atoms: N_20  and  C_26
REMARK   13  A    between atoms: C_26  and  C_27
REMARK   14  A    between atoms: C_27  and  O_28
REMARK   15  A    between atoms: O_28  and  C_29
REMARK                            x       y       z     vdW  Elec       q    Type
REMARK                         _______ _______ _______ _____ _____    ______ ____
ROOT
ATOM      1  C   UNL     1      -2.500   2.858  -6.278  0.00  0.00    +0.000 C 
ATOM      2  O   UNL     1      -1.670   3.643  -5.865  0.00  0.00    +0.000 OA
ENDROOT
BRANCH   1   3
ATOM      3  C   UNL     1      -2.197   1.482  -6.343  0.00  0.00    +0.000 A 
ATOM      4  C   UNL     1      -1.001   0.975  -5.807  0.00  0.00    +0.000 A 
ATOM      5  N   UNL     1      -0.751  -0.364  -5.899  0.00  0.00    +0.000 N 
ATOM      6  C   UNL     1      -1.626  -1.199  -6.480  0.00  0.00    +0.000 A 
ATOM      7  O   UNL     1      -1.359  -2.384  -6.533  0.00  0.00    +0.000 OA
ATOM      8  N   UNL     1      -2.786  -0.774  -7.006  0.00  0.00    +0.000 N 
ATOM      9  C   UNL     1      -3.125   0.531  -6.971  0.00  0.00    +0.000 A 
ATOM     10  O   UNL     1      -4.177   0.913  -7.449  0.00  0.00    +0.000 OA
ATOM     11  H   UNL     1      -3.426  -1.454  -7.442  0.00  0.00    +0.000 HD
BRANCH   4  12
ATOM     12  N   UNL     1      -0.105   1.806  -5.209  0.00  0.00    +0.000 N 
ATOM     13  H   UNL     1      -0.307   2.815  -5.150  0.00  0.00    +0.000 HD
ATOM     14  H   UNL     1       0.770   1.431  -4.817  0.00  0.00    +0.000 HD
ENDBRANCH   4  12
BRANCH   5  15
ATOM     15  C   UNL     1       0.495  -0.901  -5.346  0.00  0.00    +0.000 C 
BRANCH  15  16
ATOM     16  C   UNL     1       1.580  -0.885  -6.426  0.00  0.00    +0.000 C 
BRANCH  16  17
ATOM     17  O   UNL     1       1.876   0.467  -6.783  0.00  0.00    +0.000 OA
ATOM     18  C   UNL     1       2.883   0.594  -7.790  0.00  0.00    +0.000 C 
ENDBRANCH  16  17
ENDBRANCH  15  16
ENDBRANCH   5  15
ENDBRANCH   1   3
BRANCH   1  19
ATOM     19  C   UNL     1      -3.852   3.355  -6.720  0.00  0.00    +0.000 C 
BRANCH  19  20
ATOM     20  N   UNL     1      -3.917   4.813  -6.554  0.00  0.00    +0.000 NA
ATOM     21  C   UNL     1      -3.855   5.185  -5.135  0.00  0.00    +0.000 C 
BRANCH  20  22
ATOM     22  C   UNL     1      -5.122   5.362  -7.191  0.00  0.00    +0.000 C 
BRANCH  22  24
ATOM     23  N   UNL     1      -6.034   7.590  -7.758  0.00  0.00    +0.000 N 
ATOM     24  C   UNL     1      -5.034   6.867  -7.218  0.00  0.00    +0.000 C 
ATOM     25  O   UNL     1      -4.064   7.426  -6.753  0.00  0.00    +0.000 OA
ATOM     26  H   UNL     1      -6.882   7.119  -8.106  0.00  0.00    +0.000 HD
BRANCH  23  31
ATOM     27  C   UNL     1      -5.578  13.233  -8.120  0.00  0.00    +0.000 C 
ATOM     28  C   UNL     1      -5.699  11.734  -8.024  0.00  0.00    +0.000 A 
ATOM     29  C   UNL     1      -5.735  10.970  -9.176  0.00  0.00    +0.000 A 
ATOM     30  C   UNL     1      -5.846   9.596  -9.091  0.00  0.00    +0.000 A 
ATOM     31  C   UNL     1      -5.922   8.982  -7.848  0.00  0.00    +0.000 A 
ATOM     32  C   UNL     1      -5.892   9.753  -6.693  0.00  0.00    +0.000 A 
ATOM     33  C   UNL     1      -5.775  11.126  -6.785  0.00  0.00    +0.000 A 
ATOM     34  C   UNL     1      -5.980   9.092  -5.342  0.00  0.00    +0.000 C 
ATOM     35  C   UNL     1      -5.884   8.763 -10.347  0.00  0.00    +0.000 C 
ENDBRANCH  23  31
ENDBRANCH  22  24
ENDBRANCH  20  22
ENDBRANCH  19  20
ENDBRANCH   1  19
TORSDOF 10
ENDMDL
MODEL      634
REMARK  Name = ZINC15460146
REMARK  14 active torsions:
REMARK  status: ('A' for Active; 'I' for Inactive)
REMARK    1  A    between atoms: C_1  and  C_2
REMARK    2  A    between atoms: C_2  and  C_3
REMARK    3  A    between atoms: C_3  and  C_4
REMARK    4  A    between atoms: C_4  and  C_5
REMARK    5  A    between atoms: C_5  and  N_6
REMARK    6  A    between atoms: N_6  and  C_7
REMARK    7  A    between atoms: C_8  and  N_19
REMARK    8  A    between atoms: N_9  and  C_15
REMARK    9  A    between atoms: C_15  and  C_16
REMARK   10  A    between atoms: C_16  and  C_17
REMARK   11  A    between atoms: C_17  and  C_18
REMARK   12  A    between atoms: C_20  and  C_22
REMARK   13  A    between atoms: C_22  and  N_23
REMARK   14  A    between atoms: C_28  and  C_29
REMARK                            x       y       z     vdW  Elec       q    Type
REMARK                         _______ _______ _______ _____ _____    ______ ____
ROOT
ATOM      1  N   UNL     1       0.466  -3.126  -2.442  0.00  0.00    +0.000 N 
ATOM      2  C   UNL     1       0.274  -2.471  -3.607  0.00  0.00    +0.000 C 
ATOM      3  O   UNL     1       0.216  -1.260  -3.619  0.00  0.00    +0.000 OA
ENDROOT
BRANCH   1   4
ATOM      4  C   UNL     1       0.702  -2.400  -1.256  0.00  0.00    +0.000 A 
ATOM      5  C   UNL     1       1.922  -2.479  -0.615  0.00  0.00    +0.000 A 
ATOM      6  N   UNL     1       2.121  -1.763   0.542  0.00  0.00    +0.000 N 
ATOM      7  C   UNL     1       1.140  -0.987   1.039  0.00  0.00    +0.000 A 
ATOM      8  O   UNL     1       1.337  -0.358   2.061  0.00  0.00    +0.000 OA
ATOM      9  N   UNL     1      -0.053  -0.893   0.426  0.00  0.00    +0.000 N 
ATOM     10  C   UNL     1      -0.300  -1.578  -0.708  0.00  0.00    +0.000 A 
ATOM     11  O   UNL     1      -1.386  -1.486  -1.256  0.00  0.00    +0.000 OA
ATOM     12  H   UNL     1      -0.786  -0.292   0.828  0.00  0.00    +0.000 HD
BRANCH   5  13
ATOM     13  N   UNL     1       2.925  -3.267  -1.126  0.00  0.00    +0.000 N 
ATOM     14  H   UNL     1       2.764  -3.802  -1.992  0.00  0.00    +0.000 HD
ATOM     15  H   UNL     1       3.835  -3.324  -0.645  0.00  0.00    +0.000 HD
ENDBRANCH   5  13
BRANCH   6  16
ATOM     16  C   UNL     1       3.409  -1.841   1.235  0.00  0.00    +0.000 C 
BRANCH  16  17
ATOM     17  C   UNL     1       3.371  -2.981   2.255  0.00  0.00    +0.000 C 
BRANCH  17  18
ATOM     18  C   UNL     1       4.717  -3.063   2.978  0.00  0.00    +0.000 C 
ATOM     19  C   UNL     1       4.679  -4.203   3.998  0.00  0.00    +0.000 C 
ENDBRANCH  17  18
ENDBRANCH  16  17
ENDBRANCH   6  16
ENDBRANCH   1   4
BRANCH   1  20
ATOM     20  C   UNL     1       0.430  -4.590  -2.410  0.00  0.00    +0.000 C 
BRANCH  20  21
ATOM     21  C   UNL     1      -1.019  -5.061  -2.265  0.00  0.00    +0.000 C 
BRANCH  21  22
ATOM     22  C   UNL     1      -1.057  -6.590  -2.231  0.00  0.00    +0.000 C 
BRANCH  22  24
ATOM     23  C   UNL     1      -2.544  -8.590  -2.053  0.00  0.00    +0.000 C 
ATOM     24  C   UNL     1      -2.506  -7.061  -2.086  0.00  0.00    +0.000 C 
ENDBRANCH  22  24
ENDBRANCH  21  22
ENDBRANCH  20  21
ENDBRANCH   1  20
BRANCH   2  25
ATOM     25  C   UNL     1       0.132  -3.246  -4.891  0.00  0.00    +0.000 C 
BRANCH  25  26
ATOM     26  N   UNL     1      -0.066  -2.314  -6.004  0.00  0.00    +0.000 N 
ATOM     27  C   UNL     1      -1.272  -2.162  -6.507  0.00  0.00    +0.000 A 
ATOM     28  C   UNL     1      -1.501  -1.286  -7.556  0.00  0.00    +0.000 A 
ATOM     29  C   UNL     1      -0.439  -0.570  -8.087  0.00  0.00    +0.000 A 
ATOM     30  C   UNL     1       0.821  -0.754  -7.541  0.00  0.00    +0.000 A 
ATOM     31  C   UNL     1       0.977  -1.647  -6.483  0.00  0.00    +0.000 A 
BRANCH  31  32
ATOM     32  C   UNL     1       2.318  -1.855  -5.889  0.00  0.00    +0.000 C 
ATOM     33  O   UNL     1       2.463  -2.651  -4.982  0.00  0.00    +0.000 OA
ATOM     34  N   UNL     1       3.376  -1.162  -6.353  0.00  0.00    +0.000 N 
ATOM     35  H   UNL     1       3.252  -0.488  -7.122  0.00  0.00    +0.000 HD
ATOM     36  H   UNL     1       4.308  -1.307  -5.940  0.00  0.00    +0.000 HD
ENDBRANCH  31  32
ENDBRANCH  25  26
ENDBRANCH   2  25
TORSDOF 12
ENDMDL
MODEL      635
REMARK  Name = ZINC01542991
REMARK  13 active torsions:
REMARK  status: ('A' for Active; 'I' for Inactive)
REMARK    1  A    between atoms: C_1  and  O_2
REMARK    2  A    between atoms: O_2  and  C_3
REMARK    3  A    between atoms: C_3  and  C_4
REMARK    4  A    between atoms: C_4  and  N_26
REMARK    5  A    between atoms: C_5  and  C_6
REMARK    6  A    between atoms: C_5  and  N_26
REMARK    7  A    between atoms: C_6  and  N_7
REMARK    8  A    between atoms: C_12  and  S_18
REMARK    9  A    between atoms: S_18  and  N_21
REMARK   10  A    between atoms: C_22  and  C_23
REMARK   11  A    between atoms: C_22  and  N_26
REMARK   12  A    between atoms: C_23  and  O_24
REMARK   13  A    between atoms: O_24  and  C_25
REMARK                            x       y       z     vdW  Elec       q    Type
REMARK                         _______ _______ _______ _____ _____    ______ ____
ROOT
ATOM      1  N   UNL     1       0.802  -1.576   2.234  0.00  0.00    +0.000 N 
ATOM      2  C   UNL     1      -0.286  -2.304   2.698  0.00  0.00    +0.000 C 
ATOM      3  C   UNL     1      -0.486  -3.604   2.535  0.00  0.00    +0.000 C 
ATOM      4  C   UNL     1       0.491  -4.489   1.837  0.00  0.00    +0.000 A 
ATOM      5  C   UNL     1       0.264  -5.797   1.398  0.00  0.00    +0.000 A 
ATOM      6  C   UNL     1       1.251  -6.485   0.777  0.00  0.00    +0.000 A 
ATOM      7  S   UNL     1       2.595  -5.303   0.771  0.00  0.00    +0.000 S 
ATOM      8  C   UNL     1       1.756  -3.992   1.587  0.00  0.00    +0.000 A 
ATOM      9  S   UNL     1       2.261  -2.379   2.048  0.00  0.00    +0.000 S 
ATOM     10  O   UNL     1       2.919  -1.806   0.926  0.00  0.00    +0.000 OA
ATOM     11  O   UNL     1       2.859  -2.472   3.333  0.00  0.00    +0.000 OA
ENDROOT
BRANCH   6  12
ATOM     12  S   UNL     1       1.220  -8.126   0.136  0.00  0.00    +0.000 S 
ATOM     13  O   UNL     1       2.568  -8.575   0.105  0.00  0.00    +0.000 OA
ATOM     14  O   UNL     1       0.202  -8.819   0.843  0.00  0.00    +0.000 OA
BRANCH  12  15
ATOM     15  N   UNL     1       0.718  -8.026  -1.439  0.00  0.00    +0.000 NA
ATOM     16  H   UNL     1       0.508  -8.885  -1.968  0.00  0.00    +0.000 HD
ATOM     17  H   UNL     1       0.615  -7.106  -1.890  0.00  0.00    +0.000 HD
ENDBRANCH  12  15
ENDBRANCH   6  12
BRANCH   1  18
ATOM     18  C   UNL     1       0.680  -0.150   1.922  0.00  0.00    +0.000 C 
BRANCH  18  19
ATOM     19  C   UNL     1       0.164   0.017   0.492  0.00  0.00    +0.000 C 
BRANCH  19  20
ATOM     20  N   UNL     1       0.025   1.460   0.200  0.00  0.00    +0.000 NA
BRANCH  20  21
ATOM     21  C   UNL     1       1.359   2.095   0.153  0.00  0.00    +0.000 C 
BRANCH  21  22
ATOM     22  C   UNL     1       1.183   3.613   0.233  0.00  0.00    +0.000 C 
BRANCH  22  24
ATOM     23  C   UNL     1       0.476   5.365   1.708  0.00  0.00    +0.000 C 
ATOM     24  O   UNL     1       0.585   3.958   1.484  0.00  0.00    +0.000 OA
ENDBRANCH  22  24
ENDBRANCH  21  22
ENDBRANCH  20  21
BRANCH  20  25
ATOM     25  C   UNL     1      -0.671   1.650  -1.090  0.00  0.00    +0.000 C 
BRANCH  25  26
ATOM     26  C   UNL     1      -2.169   1.425  -0.876  0.00  0.00    +0.000 C 
BRANCH  26  27
ATOM     27  O   UNL     1      -2.676   2.414   0.022  0.00  0.00    +0.000 OA
ATOM     28  C   UNL     1      -4.047   2.228   0.378  0.00  0.00    +0.000 C 
ENDBRANCH  26  27
ENDBRANCH  25  26
ENDBRANCH  20  25
ENDBRANCH  19  20
ENDBRANCH  18  19
ENDBRANCH   1  18
TORSDOF 11
ENDMDL
MODEL      636
REMARK  Name = ZINC19999332
REMARK  11 active torsions:
REMARK  status: ('A' for Active; 'I' for Inactive)
REMARK    1  A    between atoms: C_1  and  N_2
REMARK    2  A    between atoms: N_2  and  C_3
REMARK    3  A    between atoms: N_2  and  C_4
REMARK    4  A    between atoms: C_4  and  C_5
REMARK    5  A    between atoms: C_5  and  N_6
REMARK    6  A    between atoms: C_7  and  C_20
REMARK    7  A    between atoms: C_8  and  C_13
REMARK    8  A    between atoms: C_13  and  C_15
REMARK    9  A    between atoms: C_23  and  O_26
REMARK   10  A    between atoms: O_26  and  C_27
REMARK   11  A    between atoms: C_27  and  C_28
REMARK                            x       y       z     vdW  Elec       q    Type
REMARK                         _______ _______ _______ _____ _____    ______ ____
ROOT
ATOM      1  N   UNL     1      -1.190   2.002   0.021  0.00  0.00    +0.000 N 
ATOM      2  C   UNL     1      -0.705   3.387   0.033  0.00  0.00    +0.000 C 
ATOM      3  C   UNL     1       0.804   3.304   0.029  0.00  0.00    +0.000 C 
ATOM      4  C   UNL     1       1.123   1.989   0.021  0.00  0.00    +0.000 C 
ATOM      5  C   UNL     1      -0.118   1.188   0.020  0.00  0.00    +0.000 C 
ATOM      6  O   UNL     1      -0.164  -0.026   0.013  0.00  0.00    +0.000 OA
ATOM      7  O   UNL     1       2.380   1.487   0.016  0.00  0.00    +0.000 OA
ENDROOT
BRANCH   2   8
ATOM      8  C   UNL     1      -1.182   4.097   1.274  0.00  0.00    +0.000 A 
ATOM      9  C   UNL     1      -1.087   3.475   2.505  0.00  0.00    +0.000 A 
ATOM     10  C   UNL     1      -1.519   4.126   3.644  0.00  0.00    +0.000 A 
ATOM     11  C   UNL     1      -2.057   5.401   3.551  0.00  0.00    +0.000 A 
ATOM     12  C   UNL     1      -2.156   6.021   2.314  0.00  0.00    +0.000 A 
ATOM     13  C   UNL     1      -1.718   5.368   1.178  0.00  0.00    +0.000 A 
BRANCH  11  14
ATOM     14  O   UNL     1      -2.487   6.042   4.670  0.00  0.00    +0.000 OA
BRANCH  14  15
ATOM     15  C   UNL     1      -2.354   5.343   5.909  0.00  0.00    +0.000 C 
BRANCH  15  16
ATOM     16  C   UNL     1      -2.879   6.203   7.030  0.00  0.00    +0.000 C 
ATOM     17  O   UNL     1      -3.323   7.306   6.791  0.00  0.00    +0.000 OA
ATOM     18  N   UNL     1      -2.855   5.746   8.298  0.00  0.00    +0.000 N 
ATOM     19  H   UNL     1      -2.478   4.810   8.501  0.00  0.00    +0.000 HD
ATOM     20  H   UNL     1      -3.214   6.334   9.064  0.00  0.00    +0.000 HD
ENDBRANCH  15  16
ENDBRANCH  14  15
ENDBRANCH  11  14
ENDBRANCH   2   8
BRANCH   3  21
ATOM     21  C   UNL     1       1.743   4.432   0.033  0.00  0.00    +0.000 C 
ATOM     22  O   UNL     1       2.473   4.613   0.991  0.00  0.00    +0.000 OA
BRANCH  21  23
ATOM     23  C   UNL     1       1.801   5.340  -1.115  0.00  0.00    +0.000 A 
ATOM     24  C   UNL     1       2.670   6.398  -1.351  0.00  0.00    +0.000 A 
ATOM     25  C   UNL     1       2.502   7.093  -2.521  0.00  0.00    +0.000 A 
ATOM     26  C   UNL     1       1.514   6.722  -3.379  0.00  0.00    +0.000 A 
ATOM     27  S   UNL     1       0.780   5.371  -2.578  0.00  0.00    +0.000 S 
ENDBRANCH  21  23
ENDBRANCH   3  21
BRANCH   1  28
ATOM     28  C   UNL     1      -2.593   1.579   0.015  0.00  0.00    +0.000 C 
BRANCH  28  29
ATOM     29  C   UNL     1      -3.086   1.425   1.455  0.00  0.00    +0.000 C 
BRANCH  29  31
ATOM     30  C   UNL     1      -4.633  -0.348   0.884  0.00  0.00    +0.000 C 
ATOM     31  N   UNL     1      -4.492   1.001   1.448  0.00  0.00    +0.000 N 
ATOM     32  C   UNL     1      -5.069   1.070   2.798  0.00  0.00    +0.000 C 
ATOM     33  H   UNL     1      -5.016   1.653   0.847  0.00  0.00    +0.000 HD
ENDBRANCH  29  31
ENDBRANCH  28  29
ENDBRANCH   1  28
TORSDOF 9
ENDMDL
MODEL      637
REMARK  Name = ZINC29667255
REMARK  13 active torsions:
REMARK  status: ('A' for Active; 'I' for Inactive)
REMARK    1  A    between atoms: C_1  and  C_2
REMARK    2  A    between atoms: C_2  and  C_3
REMARK    3  A    between atoms: C_2  and  N_6
REMARK    4  A    between atoms: C_3  and  O_4
REMARK    5  A    between atoms: O_4  and  C_5
REMARK    6  A    between atoms: N_6  and  C_7
REMARK    7  A    between atoms: C_7  and  N_9
REMARK    8  A    between atoms: N_9  and  N_10
REMARK    9  A    between atoms: C_11  and  C_13
REMARK   10  A    between atoms: C_13  and  C_14
REMARK   11  A    between atoms: C_14  and  N_15
REMARK   12  A    between atoms: C_19  and  S_25
REMARK   13  A    between atoms: S_25  and  N_28
REMARK                            x       y       z     vdW  Elec       q    Type
REMARK                         _______ _______ _______ _____ _____    ______ ____
ROOT
ATOM      1  C   UNL     1      -0.166   9.394   0.568  0.00  0.00    +0.000 C 
ENDROOT
BRANCH   1   2
ATOM      2  N   UNL     1       0.012  10.176  -0.658  0.00  0.00    +0.000 N 
ATOM      3  C   UNL     1       1.229  10.551  -1.227  0.00  0.00    +0.000 A 
ATOM      4  C   UNL     1       2.551  10.339  -0.872  0.00  0.00    +0.000 A 
ATOM      5  C   UNL     1       3.565  10.850  -1.659  0.00  0.00    +0.000 A 
ATOM      6  C   UNL     1       3.263  11.573  -2.800  0.00  0.00    +0.000 A 
ATOM      7  C   UNL     1       1.947  11.782  -3.165  0.00  0.00    +0.000 A 
ATOM      8  C   UNL     1       0.923  11.276  -2.379  0.00  0.00    +0.000 A 
ATOM      9  O   UNL     1      -0.428  11.331  -2.473  0.00  0.00    +0.000 OA
ATOM     10  C   UNL     1      -0.970  10.669  -1.438  0.00  0.00    +0.000 A 
ATOM     11  O   UNL     1      -2.161  10.536  -1.237  0.00  0.00    +0.000 OA
BRANCH   6  12
ATOM     12  S   UNL     1       4.562  12.222  -3.797  0.00  0.00    +0.000 S 
ATOM     13  O   UNL     1       4.017  13.323  -4.510  0.00  0.00    +0.000 OA
ATOM     14  O   UNL     1       5.698  12.348  -2.952  0.00  0.00    +0.000 OA
BRANCH  12  15
ATOM     15  N   UNL     1       4.937  11.068  -4.924  0.00  0.00    +0.000 NA
ATOM     16  H   UNL     1       4.445  10.163  -4.918  0.00  0.00    +0.000 HD
ATOM     17  H   UNL     1       5.663  11.254  -5.630  0.00  0.00    +0.000 HD
ENDBRANCH  12  15
ENDBRANCH   6  12
ENDBRANCH   1   2
BRANCH   1  18
ATOM     18  C   UNL     1      -0.223   7.905   0.220  0.00  0.00    +0.000 C 
BRANCH  18  20
ATOM     19  N   UNL     1      -0.483   5.757   1.417  0.00  0.00    +0.000 N 
ATOM     20  C   UNL     1      -0.406   7.101   1.481  0.00  0.00    +0.000 C 
ATOM     21  O   UNL     1      -0.484   7.663   2.553  0.00  0.00    +0.000 OA
ATOM     22  H   UNL     1      -0.417   5.279   0.507  0.00  0.00    +0.000 HD
BRANCH  19  23
ATOM     23  N   UNL     1      -0.654   5.009   2.590  0.00  0.00    +0.000 N 
ATOM     24  H   UNL     1      -0.720   5.486   3.500  0.00  0.00    +0.000 HD
BRANCH  23  25
ATOM     25  C   UNL     1      -0.731   3.665   2.527  0.00  0.00    +0.000 C 
ATOM     26  S   UNL     1      -0.940   2.751   3.959  0.00  0.00    +0.000 S 
BRANCH  25  27
ATOM     27  N   UNL     1      -0.645   3.040   1.336  0.00  0.00    +0.000 N 
ATOM     28  H   UNL     1      -0.519   3.590   0.474  0.00  0.00    +0.000 HD
BRANCH  27  30
ATOM     29  C   UNL     1      -2.198   1.155   1.217  0.00  0.00    +0.000 C 
ATOM     30  C   UNL     1      -0.729   1.579   1.267  0.00  0.00    +0.000 C 
BRANCH  30  31
ATOM     31  C   UNL     1      -0.013   1.086   0.008  0.00  0.00    +0.000 C 
BRANCH  31  32
ATOM     32  O   UNL     1      -0.704   1.559  -1.150  0.00  0.00    +0.000 OA
ATOM     33  C   UNL     1      -0.114   1.152  -2.386  0.00  0.00    +0.000 C 
ENDBRANCH  31  32
ENDBRANCH  30  31
ENDBRANCH  27  30
ENDBRANCH  25  27
ENDBRANCH  23  25
ENDBRANCH  19  23
ENDBRANCH  18  20
ENDBRANCH   1  18
TORSDOF 11
ENDMDL
MODEL      638
REMARK  Name = ZINC09600195
REMARK  12 active torsions:
REMARK  status: ('A' for Active; 'I' for Inactive)
REMARK    1  A    between atoms: C_1  and  C_2
REMARK    2  A    between atoms: C_2  and  N_29
REMARK    3  A    between atoms: C_3  and  C_4
REMARK    4  A    between atoms: C_3  and  N_29
REMARK    5  A    between atoms: C_5  and  C_6
REMARK    6  A    between atoms: C_5  and  N_29
REMARK    7  A    between atoms: C_6  and  N_7
REMARK    8  A    between atoms: C_8  and  C_10
REMARK    9  A    between atoms: N_12  and  C_13
REMARK   10  A    between atoms: C_13  and  C_14
REMARK   11  A    between atoms: N_15  and  S_19
REMARK   12  A    between atoms: S_19  and  C_22
REMARK                            x       y       z     vdW  Elec       q    Type
REMARK                         _______ _______ _______ _____ _____    ______ ____
ROOT
ATOM      1  C   UNL     1      -3.745   3.577   0.180  0.00  0.00    +0.000 C 
ATOM      2  O   UNL     1      -2.858   4.383   0.370  0.00  0.00    +0.000 OA
ATOM      3  N   UNL     1      -3.534   2.520  -0.629  0.00  0.00    +0.000 N 
ATOM      4  H   UNL     1      -4.287   1.836  -0.790  0.00  0.00    +0.000 HD
ENDROOT
BRANCH   1   6
ATOM      5  N   UNL     1      -5.284   4.813   1.652  0.00  0.00    +0.000 N 
ATOM      6  C   UNL     1      -5.073   3.756   0.843  0.00  0.00    +0.000 C 
ATOM      7  O   UNL     1      -5.960   2.951   0.653  0.00  0.00    +0.000 OA
ATOM      8  H   UNL     1      -4.531   5.497   1.814  0.00  0.00    +0.000 HD
BRANCH   5   9
ATOM      9  C   UNL     1      -6.585   4.989   2.302  0.00  0.00    +0.000 C 
BRANCH   9  10
ATOM     10  C   UNL     1      -6.560   6.257   3.159  0.00  0.00    +0.000 C 
BRANCH  10  11
ATOM     11  N   UNL     1      -7.872   6.409   3.824  0.00  0.00    +0.000 N 
ATOM     12  H   UNL     1      -8.107   5.529   4.304  0.00  0.00    +0.000 HD
BRANCH  11  14
ATOM     13  C   UNL     1      -7.089   6.981   6.067  0.00  0.00    +0.000 C 
ATOM     14  C   UNL     1      -7.809   7.498   4.820  0.00  0.00    +0.000 C 
ENDBRANCH  11  14
BRANCH  11  15
ATOM     15  C   UNL     1      -8.916   6.702   2.820  0.00  0.00    +0.000 C 
ATOM     16  C   UNL     1     -10.289   6.487   3.461  0.00  0.00    +0.000 C 
ENDBRANCH  11  15
ENDBRANCH  10  11
ENDBRANCH   9  10
ENDBRANCH   5   9
ENDBRANCH   1   6
BRANCH   3  17
ATOM     17  C   UNL     1      -2.232   2.344  -1.279  0.00  0.00    +0.000 C 
BRANCH  17  18
ATOM     18  C   UNL     1      -2.257   1.076  -2.135  0.00  0.00    +0.000 C 
ATOM     19  N   UNL     1      -2.540  -0.092  -1.286  0.00  0.00    +0.000 NA
ATOM     20  C   UNL     1      -3.774  -0.705  -1.827  0.00  0.00    +0.000 C 
ATOM     21  C   UNL     1      -3.821  -0.161  -3.275  0.00  0.00    +0.000 C 
ATOM     22  O   UNL     1      -3.297   1.179  -3.122  0.00  0.00    +0.000 OA
BRANCH  19  23
ATOM     23  S   UNL     1      -1.653  -0.618   0.010  0.00  0.00    +0.000 S 
ATOM     24  O   UNL     1      -1.935  -2.003   0.159  0.00  0.00    +0.000 OA
ATOM     25  O   UNL     1      -0.334  -0.125  -0.174  0.00  0.00    +0.000 OA
BRANCH  23  26
ATOM     26  C   UNL     1      -2.296   0.184   1.441  0.00  0.00    +0.000 A 
ATOM     27  C   UNL     1      -1.773   1.398   1.845  0.00  0.00    +0.000 A 
ATOM     28  C   UNL     1      -2.279   2.031   2.965  0.00  0.00    +0.000 A 
ATOM     29  C   UNL     1      -3.303   1.442   3.688  0.00  0.00    +0.000 A 
ATOM     30  C   UNL     1      -3.822   0.223   3.286  0.00  0.00    +0.000 A 
ATOM     31  C   UNL     1      -3.317  -0.405   2.163  0.00  0.00    +0.000 A 
ATOM     32  F   UNL     1      -3.795   2.057   4.786  0.00  0.00    +0.000 F 
ENDBRANCH  23  26
ENDBRANCH  19  23
ENDBRANCH  17  18
ENDBRANCH   3  17
TORSDOF 10
ENDMDL
MODEL      639
REMARK  Name = ZINC25317503
REMARK  12 active torsions:
REMARK  status: ('A' for Active; 'I' for Inactive)
REMARK    1  A    between atoms: C_1  and  C_2
REMARK    2  A    between atoms: C_2  and  C_3
REMARK    3  A    between atoms: C_2  and  C_4
REMARK    4  A    between atoms: C_4  and  N_5
REMARK    5  A    between atoms: C_6  and  C_24
REMARK    6  A    between atoms: C_9  and  S_10
REMARK    7  A    between atoms: S_10  and  C_11
REMARK    8  A    between atoms: C_11  and  C_12
REMARK    9  A    between atoms: N_17  and  S_20
REMARK   10  A    between atoms: S_20  and  C_23
REMARK   11  A    between atoms: C_24  and  C_25
REMARK   12  A    between atoms: C_25  and  C_26
REMARK                            x       y       z     vdW  Elec       q    Type
REMARK                         _______ _______ _______ _____ _____    ______ ____
ROOT
ATOM      1  N   UNL     1      -1.085  -0.831   0.013  0.00  0.00    +0.000 N 
ATOM      2  C   UNL     1      -0.582  -2.103  -0.004  0.00  0.00    +0.000 A 
ATOM      3  N   UNL     1       0.717  -2.007  -0.015  0.00  0.00    +0.000 NA
ATOM      4  N   UNL     1       1.068  -0.770  -0.012  0.00  0.00    +0.000 NA
ATOM      5  C   UNL     1       0.002  -0.004   0.002  0.00  0.00    +0.000 A 
ENDROOT
BRANCH   1   6
ATOM      6  C   UNL     1      -2.495  -0.437   0.036  0.00  0.00    +0.000 C 
BRANCH   6   8
ATOM      7  C   UNL     1      -4.510  -0.004  -1.377  0.00  0.00    +0.000 C 
ATOM      8  C   UNL     1      -3.008  -0.293  -1.398  0.00  0.00    +0.000 C 
ATOM      9  C   UNL     1      -2.276   0.861  -2.088  0.00  0.00    +0.000 C 
ENDBRANCH   6   8
ENDBRANCH   1   6
BRANCH   5  10
ATOM     10  S   UNL     1      -0.022   1.758   0.012  0.00  0.00    +0.000 S 
BRANCH  10  11
ATOM     11  C   UNL     1       1.756   2.096  -0.004  0.00  0.00    +0.000 C 
BRANCH  11  12
ATOM     12  C   UNL     1       1.984   3.586   0.002  0.00  0.00    +0.000 C 
ATOM     13  O   UNL     1       1.037   4.344   0.015  0.00  0.00    +0.000 OA
ATOM     14  N   UNL     1       3.240   4.076  -0.007  0.00  0.00    +0.000 N 
ATOM     15  C   UNL     1       4.396   3.169  -0.017  0.00  0.00    +0.000 C 
ATOM     16  C   UNL     1       5.282   3.525  -1.222  0.00  0.00    +0.000 C 
ATOM     17  N   UNL     1       5.519   4.976  -1.217  0.00  0.00    +0.000 NA
ATOM     18  C   UNL     1       4.363   5.882  -1.202  0.00  0.00    +0.000 C 
ATOM     19  C   UNL     1       3.477   5.526  -0.002  0.00  0.00    +0.000 C 
BRANCH  17  20
ATOM     20  S   UNL     1       7.062   5.577  -1.228  0.00  0.00    +0.000 S 
ATOM     21  O   UNL     1       7.843   4.562  -1.844  0.00  0.00    +0.000 OA
ATOM     22  O   UNL     1       6.946   6.862  -1.824  0.00  0.00    +0.000 OA
ATOM     23  C   UNL     1       7.513   5.738   0.521  0.00  0.00    +0.000 C 
ENDBRANCH  17  20
ENDBRANCH  11  12
ENDBRANCH  10  11
ENDBRANCH   5  10
BRANCH   2  24
ATOM     24  C   UNL     1      -1.383  -3.379  -0.004  0.00  0.00    +0.000 C 
BRANCH  24  25
ATOM     25  C   UNL     1      -1.642  -3.819   1.439  0.00  0.00    +0.000 C 
BRANCH  25  26
ATOM     26  C   UNL     1      -2.443  -5.095   1.439  0.00  0.00    +0.000 C 
ATOM     27  O   UNL     1      -2.775  -5.603   0.389  0.00  0.00    +0.000 OA
ATOM     28  N   UNL     1      -2.791  -5.672   2.607  0.00  0.00    +0.000 N 
ATOM     29  H   UNL     1      -2.509  -5.240   3.499  0.00  0.00    +0.000 HD
ATOM     30  H   UNL     1      -3.338  -6.544   2.607  0.00  0.00    +0.000 HD
ENDBRANCH  25  26
ENDBRANCH  24  25
ENDBRANCH   2  24
TORSDOF 9
ENDMDL
MODEL      640
REMARK  Name = ZINC22267131
REMARK  9 active torsions:
REMARK  status: ('A' for Active; 'I' for Inactive)
REMARK    1  A    between atoms: C_6  and  N_7
REMARK    2  A    between atoms: C_8  and  C_10
REMARK    3  A    between atoms: C_10  and  N_11
REMARK    4  A    between atoms: C_12  and  C_14
REMARK    5  A    between atoms: C_14  and  O_15
REMARK    6  A    between atoms: O_15  and  C_16
REMARK    7  A    between atoms: C_16  and  C_18
REMARK    8  A    between atoms: C_18  and  C_19
REMARK    9  A    between atoms: C_19  and  N_20
REMARK                            x       y       z     vdW  Elec       q    Type
REMARK                         _______ _______ _______ _____ _____    ______ ____
ROOT
ATOM      1  C   UNL     1      -4.683   4.415   2.579  0.00  0.00    +0.000 C 
ENDROOT
BRANCH   1   3
ATOM      2  N   UNL     1      -6.269   5.462   4.161  0.00  0.00    +0.000 N 
ATOM      3  C   UNL     1      -5.159   4.721   3.975  0.00  0.00    +0.000 C 
ATOM      4  O   UNL     1      -4.542   4.302   4.932  0.00  0.00    +0.000 OA
ATOM      5  H   UNL     1      -6.793   5.818   3.349  0.00  0.00    +0.000 HD
BRANCH   2   6
ATOM      6  C   UNL     1      -6.732   5.760   5.519  0.00  0.00    +0.000 C 
BRANCH   6   8
ATOM      7  N   UNL     1      -8.592   6.993   6.586  0.00  0.00    +0.000 N 
ATOM      8  C   UNL     1      -7.984   6.596   5.450  0.00  0.00    +0.000 C 
ATOM      9  O   UNL     1      -8.444   6.912   4.374  0.00  0.00    +0.000 OA
ATOM     10  H   UNL     1      -8.243   6.666   7.498  0.00  0.00    +0.000 HD
BRANCH   7  16
ATOM     11  C   UNL     1      -9.893   8.805   7.514  0.00  0.00    +0.000 A 
ATOM     12  C   UNL     1     -10.981   9.653   7.449  0.00  0.00    +0.000 A 
ATOM     13  C   UNL     1     -11.884   9.544   6.405  0.00  0.00    +0.000 A 
ATOM     14  C   UNL     1     -11.694   8.588   5.421  0.00  0.00    +0.000 A 
ATOM     15  C   UNL     1     -10.604   7.742   5.479  0.00  0.00    +0.000 A 
ATOM     16  C   UNL     1      -9.698   7.850   6.525  0.00  0.00    +0.000 A 
ATOM     17  F   UNL     1     -12.950  10.371   6.346  0.00  0.00    +0.000 F 
ENDBRANCH   7  16
ENDBRANCH   6   8
ENDBRANCH   2   6
ENDBRANCH   1   3
BRANCH   1  18
ATOM     18  O   UNL     1      -3.477   3.608   2.644  0.00  0.00    +0.000 OA
BRANCH  18  19
ATOM     19  C   UNL     1      -2.921   3.247   1.477  0.00  0.00    +0.000 C 
ATOM     20  O   UNL     1      -3.425   3.592   0.435  0.00  0.00    +0.000 OA
BRANCH  19  21
ATOM     21  C   UNL     1      -1.668   2.410   1.467  0.00  0.00    +0.000 C 
BRANCH  21  22
ATOM     22  C   UNL     1      -1.247   2.140   0.021  0.00  0.00    +0.000 C 
BRANCH  22  23
ATOM     23  N   UNL     1      -0.028   1.327   0.011  0.00  0.00    +0.000 N 
ATOM     24  C   UNL     1      -0.017  -0.024  -0.003  0.00  0.00    +0.000 C 
ATOM     25  O   UNL     1      -0.975  -0.767  -0.003  0.00  0.00    +0.000 OA
ATOM     26  C   UNL     1       1.440  -0.409  -0.016  0.00  0.00    +0.000 C 
ATOM     27  C   UNL     1       1.782  -1.230  -1.267  0.00  0.00    +0.000 C 
ATOM     28  C   UNL     1       2.848  -2.241  -0.773  0.00  0.00    +0.000 C 
ATOM     29  C   UNL     1       2.354  -2.594   0.653  0.00  0.00    +0.000 C 
ATOM     30  C   UNL     1       1.801  -1.260   1.204  0.00  0.00    +0.000 C 
ATOM     31  N   UNL     1       2.157   0.867  -0.009  0.00  0.00    +0.000 NA
ATOM     32  C   UNL     1       1.213   1.830   0.007  0.00  0.00    +0.000 C 
ATOM     33  O   UNL     1       1.461   3.019   0.017  0.00  0.00    +0.000 OA
ENDBRANCH  22  23
ENDBRANCH  21  22
ENDBRANCH  19  21
ENDBRANCH  18  19
ENDBRANCH   1  18
TORSDOF 9
ENDMDL
MODEL      641
REMARK  Name = ZINC10900143
REMARK  11 active torsions:
REMARK  status: ('A' for Active; 'I' for Inactive)
REMARK    1  A    between atoms: C_1  and  O_2
REMARK    2  A    between atoms: O_2  and  C_3
REMARK    3  A    between atoms: C_3  and  C_4
REMARK    4  A    between atoms: C_4  and  N_5
REMARK    5  A    between atoms: C_9  and  C_11
REMARK    6  A    between atoms: C_11  and  O_12
REMARK    7  A    between atoms: O_12  and  C_13
REMARK    8  A    between atoms: C_13  and  C_15
REMARK    9  A    between atoms: C_15  and  N_16
REMARK   10  A    between atoms: N_16  and  S_17
REMARK   11  A    between atoms: S_17  and  C_20
REMARK                            x       y       z     vdW  Elec       q    Type
REMARK                         _______ _______ _______ _____ _____    ______ ____
ROOT
ATOM      1  C   UNL     1      -1.425   4.872  -2.843  0.00  0.00    +0.000 C 
ATOM      2  O   UNL     1      -0.674   5.656  -3.374  0.00  0.00    +0.000 OA
ENDROOT
BRANCH   1   3
ATOM      3  C   UNL     1      -0.942   4.027  -1.693  0.00  0.00    +0.000 C 
BRANCH   3   4
ATOM      4  N   UNL     1       0.461   4.340  -1.413  0.00  0.00    +0.000 NA
ATOM      5  H   UNL     1       1.020   4.863  -2.102  0.00  0.00    +0.000 HD
BRANCH   4   6
ATOM      6  S   UNL     1       1.150   3.851   0.012  0.00  0.00    +0.000 S 
ATOM      7  O   UNL     1       0.258   4.240   1.048  0.00  0.00    +0.000 OA
ATOM      8  O   UNL     1       2.505   4.275  -0.026  0.00  0.00    +0.000 OA
BRANCH   6   9
ATOM      9  C   UNL     1       1.173   2.089   0.002  0.00  0.00    +0.000 A 
ATOM     10  C   UNL     1       2.379   1.415  -0.013  0.00  0.00    +0.000 A 
ATOM     11  C   UNL     1       2.400   0.033  -0.021  0.00  0.00    +0.000 A 
ATOM     12  C   UNL     1       1.212  -0.679  -0.013  0.00  0.00    +0.000 A 
ATOM     13  C   UNL     1       0.002  -0.004   0.002  0.00  0.00    +0.000 A 
ATOM     14  C   UNL     1      -0.017   1.382   0.010  0.00  0.00    +0.000 A 
ATOM     15  F   UNL     1      -1.196   2.042   0.019  0.00  0.00    +0.000 F 
ATOM     16  F   UNL     1      -1.158  -0.696   0.009  0.00  0.00    +0.000 F 
ATOM     17  F   UNL     1       1.233  -2.030  -0.021  0.00  0.00    +0.000 F 
ENDBRANCH   6   9
ENDBRANCH   4   6
ENDBRANCH   3   4
ENDBRANCH   1   3
BRANCH   1  18
ATOM     18  O   UNL     1      -2.690   4.755  -3.278  0.00  0.00    +0.000 OA
BRANCH  18  19
ATOM     19  C   UNL     1      -3.086   5.601  -4.389  0.00  0.00    +0.000 C 
BRANCH  19  24
ATOM     20  N   UNL     1      -6.993   6.442  -7.061  0.00  0.00    +0.000 N 
ATOM     21  C   UNL     1      -6.405   5.768  -6.053  0.00  0.00    +0.000 C 
ATOM     22  O   UNL     1      -7.038   4.943  -5.424  0.00  0.00    +0.000 OA
ATOM     23  N   UNL     1      -5.116   6.008  -5.744  0.00  0.00    +0.000 N 
ATOM     24  C   UNL     1      -4.528   5.333  -4.736  0.00  0.00    +0.000 C 
ATOM     25  O   UNL     1      -5.160   4.510  -4.108  0.00  0.00    +0.000 OA
ATOM     26  H   UNL     1      -6.457   7.141  -7.595  0.00  0.00    +0.000 HD
ATOM     27  H   UNL     1      -4.579   6.706  -6.277  0.00  0.00    +0.000 HD
BRANCH  20  28
ATOM     28  C   UNL     1      -8.395   6.181  -7.398  0.00  0.00    +0.000 C 
BRANCH  28  29
ATOM     29  C   UNL     1      -8.812   7.073  -8.570  0.00  0.00    +0.000 C 
BRANCH  29  31
ATOM     30  C   UNL     1      -8.385   7.483 -10.892  0.00  0.00    +0.000 C 
ATOM     31  O   UNL     1      -8.069   6.707  -9.734  0.00  0.00    +0.000 OA
ENDBRANCH  29  31
ENDBRANCH  28  29
ENDBRANCH  20  28
ENDBRANCH  19  24
ENDBRANCH  18  19
ENDBRANCH   1  18
TORSDOF 10
ENDMDL
MODEL      642
REMARK  Name = ZINC31977035
REMARK  15 active torsions:
REMARK  status: ('A' for Active; 'I' for Inactive)
REMARK    1  A    between atoms: C_1  and  C_2
REMARK    2  A    between atoms: C_5  and  C_9
REMARK    3  A    between atoms: C_6  and  N_8
REMARK    4  A    between atoms: C_9  and  N_10
REMARK    5  A    between atoms: N_10  and  C_11
REMARK    6  A    between atoms: C_11  and  C_12
REMARK    7  A    between atoms: C_11  and  C_13
REMARK    8  A    between atoms: C_13  and  C_14
REMARK    9  A    between atoms: C_13  and  S_26
REMARK   10  A    between atoms: C_14  and  C_15
REMARK   11  A    between atoms: C_14  and  O_25
REMARK   12  A    between atoms: C_15  and  O_16
REMARK   13  A    between atoms: O_16  and  P_17
REMARK   14  A    between atoms: P_17  and  O_20
REMARK   15  A    between atoms: O_20  and  P_21
REMARK                            x       y       z     vdW  Elec       q    Type
REMARK                         _______ _______ _______ _____ _____    ______ ____
ROOT
ATOM      1  C   UNL     1       1.353   1.550  -0.003  0.00  0.00    +0.000 C 
ATOM      2  C   UNL     1       2.234   0.702  -0.922  0.00  0.00    +0.000 C 
ENDROOT
BRANCH   1   3
ATOM      3  N   UNL     1      -0.012   1.005   0.008  0.00  0.00    +0.000 N 
ATOM      4  H   UNL     1      -0.473   1.263   0.891  0.00  0.00    +0.000 HD
ATOM      5  H   UNL     1       0.033  -0.022  -0.056  0.00  0.00    +0.000 HD
BRANCH   3   6
ATOM      6  C   UNL     1      -0.795   1.527  -1.120  0.00  0.00    +0.000 C 
BRANCH   6  11
ATOM      7  C   UNL     1      -6.046  -0.669  -0.961  0.00  0.00    +0.000 C 
ATOM      8  C   UNL     1      -4.658  -0.084  -0.999  0.00  0.00    +0.000 A 
ATOM      9  N   UNL     1      -3.767  -0.601  -1.821  0.00  0.00    +0.000 NA
ATOM     10  C   UNL     1      -2.535  -0.116  -1.886  0.00  0.00    +0.000 A 
ATOM     11  C   UNL     1      -2.186   0.947  -1.076  0.00  0.00    +0.000 A 
ATOM     12  C   UNL     1      -3.151   1.467  -0.212  0.00  0.00    +0.000 A 
ATOM     13  N   UNL     1      -4.368   0.929  -0.208  0.00  0.00    +0.000 NA
BRANCH  12  14
ATOM     14  N   UNL     1      -2.849   2.529   0.624  0.00  0.00    +0.000 N 
ATOM     15  H   UNL     1      -1.903   2.937   0.607  0.00  0.00    +0.000 HD
ATOM     16  H   UNL     1      -3.564   2.909   1.260  0.00  0.00    +0.000 HD
ENDBRANCH  12  14
ENDBRANCH   6  11
ENDBRANCH   3   6
ENDBRANCH   1   3
BRANCH   1  17
ATOM     17  C   UNL     1       1.923   1.523   1.417  0.00  0.00    +0.000 C 
BRANCH  17  18
ATOM     18  S   UNL     1       3.547   2.330   1.431  0.00  0.00    +0.000 S 
ATOM     19  H   UNL     1       3.417   3.629   1.017  0.00  0.00    +0.000 HD
ENDBRANCH  17  18
BRANCH  17  20
ATOM     20  C   UNL     1       0.976   2.266   2.361  0.00  0.00    +0.000 C 
BRANCH  20  21
ATOM     21  O   UNL     1       0.747   3.586   1.864  0.00  0.00    +0.000 OA
ATOM     22  H   UNL     1       0.340   3.534   0.963  0.00  0.00    +0.000 HD
ENDBRANCH  20  21
BRANCH  20  23
ATOM     23  C   UNL     1       1.605   2.348   3.754  0.00  0.00    +0.000 C 
BRANCH  23  24
ATOM     24  O   UNL     1       0.673   2.937   4.663  0.00  0.00    +0.000 OA
BRANCH  24  25
ATOM     25  P   UNL     1       1.002   3.179   6.221  0.00  0.00    +0.000 P 
ATOM     26  O   UNL     1       2.244   3.972   6.346  0.00  0.00    +0.000 OA
ATOM     27  O   UNL     1       1.196   1.758   6.954  0.00  0.00    +0.000 OA
BRANCH  25  28
ATOM     28  O   UNL     1      -0.216   3.976   6.909  0.00  0.00    +0.000 OA
BRANCH  28  29
ATOM     29  P   UNL     1      -0.362   4.856   8.249  0.00  0.00    +0.000 P 
ATOM     30  O   UNL     1       0.791   5.778   8.361  0.00  0.00    +0.000 OA
ATOM     31  O   UNL     1      -1.726   5.708   8.186  0.00  0.00    +0.000 OA
ATOM     32  O   UNL     1      -0.395   3.882   9.530  0.00  0.00    +0.000 OA
ENDBRANCH  28  29
ENDBRANCH  25  28
ENDBRANCH  24  25
ENDBRANCH  23  24
ENDBRANCH  20  23
ENDBRANCH  17  20
ENDBRANCH   1  17
TORSDOF 13
ENDMDL
MODEL      643
REMARK  Name = ZINC31167898
REMARK  16 active torsions:
REMARK  status: ('A' for Active; 'I' for Inactive)
REMARK    1  A    between atoms: C_1  and  C_2
REMARK    2  A    between atoms: C_2  and  C_3
REMARK    3  A    between atoms: C_2  and  C_7
REMARK    4  A    between atoms: C_2  and  O_30
REMARK    5  A    between atoms: C_3  and  C_4
REMARK    6  A    between atoms: C_7  and  C_8
REMARK    7  A    between atoms: C_8  and  O_10
REMARK    8  A    between atoms: O_10  and  C_11
REMARK    9  A    between atoms: C_11  and  C_12
REMARK   10  A    between atoms: C_15  and  O_18
REMARK   11  A    between atoms: O_18  and  C_19
REMARK   12  A    between atoms: C_20  and  O_29
REMARK   13  A    between atoms: C_21  and  O_28
REMARK   14  A    between atoms: C_22  and  O_27
REMARK   15  A    between atoms: C_23  and  C_25
REMARK   16  A    between atoms: C_25  and  O_26
REMARK                            x       y       z     vdW  Elec       q    Type
REMARK                         _______ _______ _______ _____ _____    ______ ____
ROOT
ATOM      1  C   UNL     1       1.229   2.066   0.251  0.00  0.00    +0.000 A 
ATOM      2  C   UNL     1       0.088   1.294   0.360  0.00  0.00    +0.000 A 
ATOM      3  C   UNL     1       0.184  -0.084   0.385  0.00  0.00    +0.000 A 
ATOM      4  C   UNL     1       1.427  -0.693   0.299  0.00  0.00    +0.000 A 
ATOM      5  C   UNL     1       2.571   0.084   0.189  0.00  0.00    +0.000 A 
ATOM      6  C   UNL     1       2.470   1.461   0.165  0.00  0.00    +0.000 A 
ENDROOT
BRANCH   1   7
ATOM      7  C   UNL     1       1.122   3.569   0.224  0.00  0.00    +0.000 C 
BRANCH   7   8
ATOM      8  O   UNL     1       1.197   4.083   1.580  0.00  0.00    +0.000 OA
BRANCH   8   9
ATOM      9  C   UNL     1       1.116   5.414   1.732  0.00  0.00    +0.000 C 
ATOM     10  O   UNL     1       0.986   6.126   0.764  0.00  0.00    +0.000 OA
BRANCH   9  11
ATOM     11  C   UNL     1       1.186   6.021   3.110  0.00  0.00    +0.000 C 
BRANCH  11  13
ATOM     12  C   UNL     1      -0.265   7.909   2.352  0.00  0.00    +0.000 C 
ATOM     13  C   UNL     1       1.070   7.543   3.003  0.00  0.00    +0.000 C 
BRANCH  13  14
ATOM     14  O   UNL     1       2.143   8.048   2.205  0.00  0.00    +0.000 OA
ATOM     15  H   UNL     1       2.069   9.032   2.136  0.00  0.00    +0.000 HD
ENDBRANCH  13  14
BRANCH  13  16
ATOM     16  C   UNL     1       1.142   8.159   4.402  0.00  0.00    +0.000 C 
BRANCH  16  17
ATOM     17  C   UNL     1       2.456   7.797   5.044  0.00  0.00    +0.000 C 
ATOM     18  O   UNL     1       3.291   7.195   4.412  0.00  0.00    +0.000 OA
ATOM     19  O   UNL     1       2.699   8.144   6.317  0.00  0.00    +0.000 OA
ENDBRANCH  16  17
ENDBRANCH  13  16
ENDBRANCH  11  13
ENDBRANCH   9  11
ENDBRANCH   8   9
ENDBRANCH   7   8
ENDBRANCH   1   7
BRANCH   4  20
ATOM     20  O   UNL     1       1.524  -2.048   0.324  0.00  0.00    +0.000 OA
BRANCH  20  21
ATOM     21  C   UNL     1       2.837  -2.607   0.231  0.00  0.00    +0.000 C 
ATOM     22  C   UNL     1       2.758  -4.126   0.399  0.00  0.00    +0.000 C 
ATOM     23  C   UNL     1       4.160  -4.723   0.239  0.00  0.00    +0.000 C 
ATOM     24  C   UNL     1       4.722  -4.317  -1.127  0.00  0.00    +0.000 C 
ATOM     25  C   UNL     1       4.725  -2.790  -1.235  0.00  0.00    +0.000 C 
ATOM     26  O   UNL     1       3.397  -2.298  -1.046  0.00  0.00    +0.000 OA
BRANCH  22  27
ATOM     27  O   UNL     1       2.252  -4.437   1.699  0.00  0.00    +0.000 OA
ATOM     28  H   UNL     1       1.348  -4.047   1.804  0.00  0.00    +0.000 HD
ENDBRANCH  22  27
BRANCH  23  29
ATOM     29  O   UNL     1       4.085  -6.148   0.321  0.00  0.00    +0.000 OA
ATOM     30  H   UNL     1       3.497  -6.490  -0.398  0.00  0.00    +0.000 HD
ENDBRANCH  23  29
BRANCH  24  31
ATOM     31  O   UNL     1       6.058  -4.808  -1.258  0.00  0.00    +0.000 OA
ATOM     32  H   UNL     1       6.057  -5.795  -1.182  0.00  0.00    +0.000 HD
ENDBRANCH  24  31
BRANCH  25  33
ATOM     33  C   UNL     1       5.230  -2.378  -2.620  0.00  0.00    +0.000 C 
BRANCH  33  34
ATOM     34  O   UNL     1       5.341  -0.955  -2.682  0.00  0.00    +0.000 OA
ATOM     35  H   UNL     1       5.980  -0.642  -1.992  0.00  0.00    +0.000 HD
ENDBRANCH  33  34
ENDBRANCH  25  33
ENDBRANCH  20  21
ENDBRANCH   4  20
TORSDOF 15
ENDMDL
MODEL      644
REMARK  Name = ZINC13041957
REMARK  11 active torsions:
REMARK  status: ('A' for Active; 'I' for Inactive)
REMARK    1  A    between atoms: C_1  and  C_2
REMARK    2  A    between atoms: C_2  and  C_3
REMARK    3  A    between atoms: C_2  and  C_4
REMARK    4  A    between atoms: C_7  and  S_10
REMARK    5  A    between atoms: S_10  and  N_13
REMARK    6  A    between atoms: N_16  and  C_19
REMARK    7  A    between atoms: C_19  and  C_20
REMARK    8  A    between atoms: C_20  and  S_21
REMARK    9  A    between atoms: S_21  and  C_24
REMARK   10  A    between atoms: C_24  and  C_25
REMARK   11  A    between atoms: C_25  and  C_26
REMARK                            x       y       z     vdW  Elec       q    Type
REMARK                         _______ _______ _______ _____ _____    ______ ____
ROOT
ATOM      1  N   UNL     1      -0.709   1.564   1.212  0.00  0.00    +0.000 NA
ATOM      2  C   UNL     1      -0.013   1.086   0.008  0.00  0.00    +0.000 C 
ATOM      3  C   UNL     1      -0.762   1.597  -1.227  0.00  0.00    +0.000 C 
ATOM      4  N   UNL     1      -0.913   3.056  -1.135  0.00  0.00    +0.000 NA
ATOM      5  C   UNL     1      -1.732   3.434   0.024  0.00  0.00    +0.000 C 
ATOM      6  C   UNL     1      -1.023   2.998   1.310  0.00  0.00    +0.000 C 
ENDROOT
BRANCH   1   7
ATOM      7  S   UNL     1      -1.132   0.515   2.422  0.00  0.00    +0.000 S 
ATOM      8  O   UNL     1      -2.217   1.114   3.117  0.00  0.00    +0.000 OA
ATOM      9  O   UNL     1      -1.225  -0.773   1.829  0.00  0.00    +0.000 OA
BRANCH   7  13
ATOM     10  C   UNL     1       2.334   0.353   5.329  0.00  0.00    +0.000 A 
ATOM     11  C   UNL     1       1.328   1.285   5.504  0.00  0.00    +0.000 A 
ATOM     12  C   UNL     1       0.270   1.334   4.616  0.00  0.00    +0.000 A 
ATOM     13  C   UNL     1       0.217   0.452   3.553  0.00  0.00    +0.000 A 
ATOM     14  C   UNL     1       1.220  -0.483   3.381  0.00  0.00    +0.000 A 
ATOM     15  C   UNL     1       2.281  -0.530   4.266  0.00  0.00    +0.000 A 
BRANCH  10  17
ATOM     16  C   UNL     1       3.536  -1.079   6.958  0.00  0.00    +0.000 C 
ATOM     17  C   UNL     1       3.489   0.300   6.295  0.00  0.00    +0.000 C 
ATOM     18  C   UNL     1       4.797   0.549   5.542  0.00  0.00    +0.000 C 
ENDBRANCH  10  17
ENDBRANCH   7  13
ENDBRANCH   1   7
BRANCH   4  19
ATOM     19  C   UNL     1      -1.472   3.606  -2.377  0.00  0.00    +0.000 C 
BRANCH  19  20
ATOM     20  C   UNL     1      -1.847   5.074  -2.161  0.00  0.00    +0.000 C 
BRANCH  20  21
ATOM     21  S   UNL     1      -2.537   5.754  -3.695  0.00  0.00    +0.000 S 
ATOM     22  O   UNL     1      -1.515   5.763  -4.682  0.00  0.00    +0.000 OA
ATOM     23  O   UNL     1      -3.760   5.085  -3.972  0.00  0.00    +0.000 OA
BRANCH  21  24
ATOM     24  C   UNL     1      -2.911   7.470  -3.239  0.00  0.00    +0.000 C 
BRANCH  24  25
ATOM     25  C   UNL     1      -3.511   8.197  -4.444  0.00  0.00    +0.000 C 
BRANCH  25  26
ATOM     26  C   UNL     1      -3.822   9.623  -4.066  0.00  0.00    +0.000 C 
ATOM     27  O   UNL     1      -3.587  10.017  -2.943  0.00  0.00    +0.000 OA
ATOM     28  N   UNL     1      -4.362  10.459  -4.975  0.00  0.00    +0.000 N 
ATOM     29  H   UNL     1      -4.562  10.123  -5.928  0.00  0.00    +0.000 HD
ATOM     30  H   UNL     1      -4.574  11.433  -4.716  0.00  0.00    +0.000 HD
ENDBRANCH  25  26
ENDBRANCH  24  25
ENDBRANCH  21  24
ENDBRANCH  20  21
ENDBRANCH  19  20
ENDBRANCH   4  19
TORSDOF 9
ENDMDL
MODEL      645
REMARK  Name = ZINC30924904
REMARK  11 active torsions:
REMARK  status: ('A' for Active; 'I' for Inactive)
REMARK    1  A    between atoms: C_1  and  C_2
REMARK    2  A    between atoms: C_5  and  S_8
REMARK    3  A    between atoms: S_8  and  N_11
REMARK    4  A    between atoms: N_11  and  C_12
REMARK    5  A    between atoms: C_12  and  C_13
REMARK    6  A    between atoms: N_15  and  C_16
REMARK    7  A    between atoms: C_16  and  C_17
REMARK    8  A    between atoms: N_19  and  C_20
REMARK    9  A    between atoms: C_24  and  O_26
REMARK   10  A    between atoms: O_26  and  C_27
REMARK   11  A    between atoms: C_27  and  C_28
REMARK                            x       y       z     vdW  Elec       q    Type
REMARK                         _______ _______ _______ _____ _____    ______ ____
ROOT
ATOM      1  C   UNL     1      -2.361   4.896  -4.831  0.00  0.00    +0.000 C 
ENDROOT
BRANCH   1   4
ATOM      2  C   UNL     1      -1.606   3.488  -2.991  0.00  0.00    +0.000 C 
ATOM      3  O   UNL     1      -1.742   2.523  -3.712  0.00  0.00    +0.000 OA
ATOM      4  N   UNL     1      -1.889   4.722  -3.455  0.00  0.00    +0.000 N 
ATOM      5  H   UNL     1      -1.773   5.542  -2.842  0.00  0.00    +0.000 HD
BRANCH   2   6
ATOM      6  C   UNL     1      -1.120   3.309  -1.576  0.00  0.00    +0.000 C 
BRANCH   6   7
ATOM      7  N   UNL     1      -0.885   1.886  -1.317  0.00  0.00    +0.000 NA
ATOM      8  H   UNL     1      -1.266   1.176  -1.958  0.00  0.00    +0.000 HD
BRANCH   7   9
ATOM      9  S   UNL     1      -0.006   1.419   0.007  0.00  0.00    +0.000 S 
ATOM     10  O   UNL     1       0.022  -0.001  -0.004  0.00  0.00    +0.000 OA
ATOM     11  O   UNL     1       1.178   2.205   0.006  0.00  0.00    +0.000 OA
BRANCH   9  16
ATOM     12  C   UNL     1      -3.148   3.043   4.896  0.00  0.00    +0.000 C 
ATOM     13  C   UNL     1      -2.363   2.637   3.675  0.00  0.00    +0.000 A 
ATOM     14  C   UNL     1      -2.559   1.391   3.109  0.00  0.00    +0.000 A 
ATOM     15  C   UNL     1      -1.840   1.019   1.990  0.00  0.00    +0.000 A 
ATOM     16  C   UNL     1      -0.924   1.894   1.435  0.00  0.00    +0.000 A 
ATOM     17  C   UNL     1      -0.724   3.138   2.003  0.00  0.00    +0.000 A 
ATOM     18  C   UNL     1      -1.447   3.511   3.120  0.00  0.00    +0.000 A 
ENDBRANCH   9  16
ENDBRANCH   7   9
ENDBRANCH   6   7
ENDBRANCH   2   6
ENDBRANCH   1   4
BRANCH   1  19
ATOM     19  C   UNL     1      -2.603   6.360  -5.097  0.00  0.00    +0.000 C 
ATOM     20  O   UNL     1      -2.401   7.176  -4.223  0.00  0.00    +0.000 OA
ATOM     21  N   UNL     1      -3.043   6.761  -6.306  0.00  0.00    +0.000 N 
ATOM     22  H   UNL     1      -3.147   6.077  -7.069  0.00  0.00    +0.000 HD
BRANCH  21  23
ATOM     23  C   UNL     1      -3.360   8.106  -6.524  0.00  0.00    +0.000 A 
ATOM     24  C   UNL     1      -4.409   8.446  -7.370  0.00  0.00    +0.000 A 
ATOM     25  C   UNL     1      -4.725   9.774  -7.581  0.00  0.00    +0.000 A 
ATOM     26  C   UNL     1      -3.993  10.768  -6.960  0.00  0.00    +0.000 A 
ATOM     27  C   UNL     1      -2.941  10.435  -6.118  0.00  0.00    +0.000 A 
ATOM     28  C   UNL     1      -2.624   9.103  -5.900  0.00  0.00    +0.000 A 
BRANCH  27  29
ATOM     29  O   UNL     1      -2.222  11.414  -5.509  0.00  0.00    +0.000 OA
BRANCH  29  30
ATOM     30  C   UNL     1      -2.604  12.764  -5.779  0.00  0.00    +0.000 C 
BRANCH  30  31
ATOM     31  C   UNL     1      -1.701  13.703  -5.022  0.00  0.00    +0.000 C 
ATOM     32  O   UNL     1      -0.817  13.260  -4.320  0.00  0.00    +0.000 OA
ATOM     33  N   UNL     1      -1.876  15.036  -5.125  0.00  0.00    +0.000 N 
ATOM     34  H   UNL     1      -2.627  15.412  -5.722  0.00  0.00    +0.000 HD
ATOM     35  H   UNL     1      -1.258  15.677  -4.608  0.00  0.00    +0.000 HD
ENDBRANCH  30  31
ENDBRANCH  29  30
ENDBRANCH  27  29
ENDBRANCH  21  23
ENDBRANCH   1  19
TORSDOF 10
ENDMDL
MODEL      646
REMARK  Name = ZINC17141946
REMARK  13 active torsions:
REMARK  status: ('A' for Active; 'I' for Inactive)
REMARK    1  A    between atoms: C_1  and  C_2
REMARK    2  A    between atoms: C_5  and  C_28
REMARK    3  A    between atoms: C_7  and  C_9
REMARK    4  A    between atoms: C_10  and  O_23
REMARK    5  A    between atoms: C_11  and  O_19
REMARK    6  A    between atoms: C_12  and  C_14
REMARK    7  A    between atoms: C_14  and  O_15
REMARK    8  A    between atoms: O_15  and  C_16
REMARK    9  A    between atoms: C_16  and  C_18
REMARK   10  A    between atoms: O_19  and  C_20
REMARK   11  A    between atoms: C_20  and  C_22
REMARK   12  A    between atoms: O_23  and  C_24
REMARK   13  A    between atoms: C_24  and  C_26
REMARK                            x       y       z     vdW  Elec       q    Type
REMARK                         _______ _______ _______ _____ _____    ______ ____
ROOT
ATOM      1  C   UNL     1       1.707  -1.874  -0.013  0.00  0.00    +0.000 C 
ATOM      2  C   UNL     1       2.216  -2.280   1.384  0.00  0.00    +0.000 C 
ATOM      3  C   UNL     1       3.697  -2.663   1.152  0.00  0.00    +0.000 C 
ATOM      4  C   UNL     1       4.016  -1.937  -0.180  0.00  0.00    +0.000 C 
ATOM      5  O   UNL     1       2.793  -2.067  -0.935  0.00  0.00    +0.000 OA
ENDROOT
BRANCH   1  12
ATOM      6  C   UNL     1       3.326   3.262  -0.113  0.00  0.00    +0.000 C 
ATOM      7  C   UNL     1       1.841   3.033   0.006  0.00  0.00    +0.000 C 
ATOM      8  O   UNL     1       1.091   3.975   0.105  0.00  0.00    +0.000 OA
ATOM      9  N   UNL     1       1.350   1.778   0.003  0.00  0.00    +0.000 N 
ATOM     10  C   UNL     1       0.017   1.425   0.004  0.00  0.00    +0.000 A 
ATOM     11  C   UNL     1      -0.032   0.043  -0.002  0.00  0.00    +0.000 A 
ATOM     12  C   UNL     1       1.291  -0.426  -0.007  0.00  0.00    +0.000 A 
ATOM     13  N   UNL     1       2.103   0.597  -0.004  0.00  0.00    +0.000 NA
ATOM     14  O   UNL     1      -1.154  -0.721  -0.004  0.00  0.00    +0.000 OA
BRANCH  10  15
ATOM     15  C   UNL     1      -1.129   2.340   0.005  0.00  0.00    +0.000 C 
ATOM     16  O   UNL     1      -1.718   2.577   1.043  0.00  0.00    +0.000 OA
ATOM     17  N   UNL     1      -1.530   2.919  -1.145  0.00  0.00    +0.000 N 
ATOM     18  H   UNL     1      -1.032   2.719  -2.023  0.00  0.00    +0.000 HD
ATOM     19  H   UNL     1      -2.335   3.562  -1.144  0.00  0.00    +0.000 HD
ENDBRANCH  10  15
ENDBRANCH   1  12
BRANCH   4  20
ATOM     20  C   UNL     1       5.176  -2.623  -0.903  0.00  0.00    +0.000 C 
BRANCH  20  21
ATOM     21  O   UNL     1       5.531  -1.856  -2.084  0.00  0.00    +0.000 OA
BRANCH  21  22
ATOM     22  C   UNL     1       6.539  -2.327  -2.836  0.00  0.00    +0.000 C 
ATOM     23  O   UNL     1       7.105  -3.345  -2.518  0.00  0.00    +0.000 OA
ATOM     24  C   UNL     1       6.963  -1.584  -4.077  0.00  0.00    +0.000 C 
ENDBRANCH  21  22
ENDBRANCH  20  21
ENDBRANCH   4  20
BRANCH   2  25
ATOM     25  O   UNL     1       1.468  -3.419   1.885  0.00  0.00    +0.000 OA
BRANCH  25  26
ATOM     26  C   UNL     1       0.379  -3.156   2.625  0.00  0.00    +0.000 C 
ATOM     27  O   UNL     1       0.061  -2.012   2.845  0.00  0.00    +0.000 OA
ATOM     28  C   UNL     1      -0.446  -4.288   3.179  0.00  0.00    +0.000 C 
ENDBRANCH  25  26
ENDBRANCH   2  25
BRANCH   3  29
ATOM     29  O   UNL     1       4.536  -2.165   2.228  0.00  0.00    +0.000 OA
BRANCH  29  30
ATOM     30  C   UNL     1       5.636  -2.876   2.522  0.00  0.00    +0.000 C 
ATOM     31  O   UNL     1       5.890  -3.881   1.901  0.00  0.00    +0.000 OA
ATOM     32  C   UNL     1       6.554  -2.421   3.627  0.00  0.00    +0.000 C 
ENDBRANCH  29  30
ENDBRANCH   3  29
TORSDOF 9
ENDMDL
MODEL      647
REMARK  Name = ZINC29008551
REMARK  10 active torsions:
REMARK  status: ('A' for Active; 'I' for Inactive)
REMARK    1  A    between atoms: C_1  and  O_2
REMARK    2  A    between atoms: O_2  and  C_3
REMARK    3  A    between atoms: C_3  and  C_4
REMARK    4  A    between atoms: C_4  and  O_5
REMARK    5  A    between atoms: O_5  and  C_6
REMARK    6  A    between atoms: C_6  and  C_7
REMARK    7  A    between atoms: C_7  and  C_8
REMARK    8  A    between atoms: C_8  and  N_9
REMARK    9  A    between atoms: N_9  and  C_10
REMARK   10  A    between atoms: C_10  and  C_20
REMARK                            x       y       z     vdW  Elec       q    Type
REMARK                         _______ _______ _______ _____ _____    ______ ____
ROOT
ATOM      1  C   UNL     1      -3.752  -0.801   0.009  0.00  0.00    +0.000 C 
ATOM      2  C   UNL     1      -4.856   0.055   0.078  0.00  0.00    +0.000 C 
ATOM      3  C   UNL     1      -4.700   1.516   0.004  0.00  0.00    +0.000 C 
ATOM      4  O   UNL     1      -3.599   2.021  -0.119  0.00  0.00    +0.000 OA
ATOM      5  N   UNL     1      -5.809   2.281   0.073  0.00  0.00    +0.000 N 
ATOM      6  C   UNL     1      -7.026   1.738   0.215  0.00  0.00    +0.000 C 
ATOM      7  S   UNL     1      -8.377   2.786   0.300  0.00  0.00    +0.000 S 
ATOM      8  N   UNL     1      -7.240   0.417   0.294  0.00  0.00    +0.000 N 
ATOM      9  C   UNL     1      -6.222  -0.466   0.234  0.00  0.00    +0.000 C 
ATOM     10  O   UNL     1      -6.429  -1.664   0.307  0.00  0.00    +0.000 OA
ATOM     11  H   UNL     1      -5.718   3.305   0.014  0.00  0.00    +0.000 HD
ATOM     12  H   UNL     1      -8.203   0.069   0.402  0.00  0.00    +0.000 HD
ENDROOT
BRANCH   1  13
ATOM     13  C   UNL     1      -2.424  -0.261  -0.304  0.00  0.00    +0.000 A 
ATOM     14  C   UNL     1      -2.195   0.248  -1.545  0.00  0.00    +0.000 A 
ATOM     15  C   UNL     1      -0.875   0.788  -1.866  0.00  0.00    +0.000 A 
ATOM     16  C   UNL     1      -0.585   1.323  -3.123  0.00  0.00    +0.000 A 
ATOM     17  C   UNL     1       0.675   1.819  -3.376  0.00  0.00    +0.000 A 
ATOM     18  C   UNL     1       1.658   1.793  -2.395  0.00  0.00    +0.000 A 
ATOM     19  C   UNL     1       1.394   1.269  -1.147  0.00  0.00    +0.000 A 
ATOM     20  C   UNL     1       0.127   0.762  -0.868  0.00  0.00    +0.000 A 
ATOM     21  C   UNL     1      -0.204   0.188   0.445  0.00  0.00    +0.000 A 
ATOM     22  O   UNL     1       0.635   0.148   1.326  0.00  0.00    +0.000 OA
ATOM     23  N   UNL     1      -1.445  -0.286   0.667  0.00  0.00    +0.000 N 
ATOM     24  H   UNL     1      -1.671  -0.679   1.592  0.00  0.00    +0.000 HD
ENDBRANCH   1  13
BRANCH   1  25
ATOM     25  N   UNL     1      -3.911  -2.141   0.234  0.00  0.00    +0.000 N 
ATOM     26  H   UNL     1      -4.853  -2.532   0.374  0.00  0.00    +0.000 HD
BRANCH  25  27
ATOM     27  C   UNL     1      -2.740  -3.020   0.275  0.00  0.00    +0.000 C 
BRANCH  27  28
ATOM     28  C   UNL     1      -3.182  -4.443   0.622  0.00  0.00    +0.000 C 
BRANCH  28  29
ATOM     29  C   UNL     1      -1.959  -5.362   0.665  0.00  0.00    +0.000 C 
BRANCH  29  30
ATOM     30  O   UNL     1      -2.373  -6.690   0.989  0.00  0.00    +0.000 OA
BRANCH  30  31
ATOM     31  C   UNL     1      -1.300  -7.633   1.055  0.00  0.00    +0.000 C 
BRANCH  31  32
ATOM     32  C   UNL     1      -1.857  -9.014   1.407  0.00  0.00    +0.000 C 
BRANCH  32  34
ATOM     33  C   UNL     1      -3.272 -10.761   0.577  0.00  0.00    +0.000 C 
ATOM     34  O   UNL     1      -2.699  -9.473   0.347  0.00  0.00    +0.000 OA
ENDBRANCH  32  34
ENDBRANCH  31  32
ENDBRANCH  30  31
ENDBRANCH  29  30
ENDBRANCH  28  29
ENDBRANCH  27  28
ENDBRANCH  25  27
ENDBRANCH   1  25
TORSDOF 9
ENDMDL
MODEL      648
REMARK  Name = ZINC20836166
REMARK  11 active torsions:
REMARK  status: ('A' for Active; 'I' for Inactive)
REMARK    1  A    between atoms: C_1  and  C_2
REMARK    2  A    between atoms: C_2  and  C_22
REMARK    3  A    between atoms: N_3  and  N_4
REMARK    4  A    between atoms: C_7  and  S_10
REMARK    5  A    between atoms: S_10  and  C_11
REMARK    6  A    between atoms: C_11  and  C_12
REMARK    7  A    between atoms: N_14  and  N_15
REMARK    8  A    between atoms: N_15  and  C_16
REMARK    9  A    between atoms: C_16  and  C_18
REMARK   10  A    between atoms: C_26  and  O_28
REMARK   11  A    between atoms: O_28  and  C_29
REMARK                            x       y       z     vdW  Elec       q    Type
REMARK                         _______ _______ _______ _____ _____    ______ ____
ROOT
ATOM      1  N   UNL     1      -2.496   2.802   7.211  0.00  0.00    +0.000 N 
ATOM      2  C   UNL     1      -3.639   3.588   7.179  0.00  0.00    +0.000 A 
ATOM      3  N   UNL     1      -4.321   4.058   8.267  0.00  0.00    +0.000 NA
ATOM      4  C   UNL     1      -5.384   4.788   7.815  0.00  0.00    +0.000 A 
ATOM      5  N   UNL     1      -5.360   4.770   6.504  0.00  0.00    +0.000 NA
ATOM      6  N   UNL     1      -4.252   4.014   6.101  0.00  0.00    +0.000 N 
ATOM      7  H   UNL     1      -2.088   2.523   8.115  0.00  0.00    +0.000 HD
ATOM      8  H   UNL     1      -3.967   3.826   5.129  0.00  0.00    +0.000 HD
ENDROOT
BRANCH   1  11
ATOM      9  C   UNL     1      -0.230   1.244   7.366  0.00  0.00    +0.000 C 
ATOM     10  C   UNL     1      -0.827   1.653   6.044  0.00  0.00    +0.000 C 
ATOM     11  N   UNL     1      -1.897   2.388   6.014  0.00  0.00    +0.000 NA
BRANCH  10  12
ATOM     12  C   UNL     1      -0.196   1.218   4.784  0.00  0.00    +0.000 A 
ATOM     13  C   UNL     1       0.955   0.426   4.813  0.00  0.00    +0.000 A 
ATOM     14  C   UNL     1       1.542   0.022   3.632  0.00  0.00    +0.000 A 
ATOM     15  C   UNL     1       0.992   0.392   2.419  0.00  0.00    +0.000 A 
ATOM     16  C   UNL     1      -0.149   1.182   2.380  0.00  0.00    +0.000 A 
ATOM     17  C   UNL     1      -0.747   1.595   3.558  0.00  0.00    +0.000 A 
BRANCH  16  18
ATOM     18  O   UNL     1      -0.682   1.547   1.184  0.00  0.00    +0.000 OA
ATOM     19  C   UNL     1      -0.013   1.086   0.008  0.00  0.00    +0.000 C 
ENDBRANCH  16  18
ENDBRANCH  10  12
ENDBRANCH   1  11
BRANCH   4  20
ATOM     20  S   UNL     1      -6.577   5.609   8.818  0.00  0.00    +0.000 S 
BRANCH  20  21
ATOM     21  C   UNL     1      -7.701   6.380   7.621  0.00  0.00    +0.000 C 
BRANCH  21  22
ATOM     22  C   UNL     1      -8.785   7.125   8.357  0.00  0.00    +0.000 C 
ATOM     23  O   UNL     1      -8.798   7.136   9.569  0.00  0.00    +0.000 OA
ATOM     24  N   UNL     1      -9.739   7.781   7.667  0.00  0.00    +0.000 N 
ATOM     25  H   UNL     1      -9.728   7.772   6.637  0.00  0.00    +0.000 HD
BRANCH  24  26
ATOM     26  N   UNL     1     -10.747   8.474   8.351  0.00  0.00    +0.000 NA
BRANCH  26  27
ATOM     27  C   UNL     1     -11.701   9.129   7.662  0.00  0.00    +0.000 C 
ATOM     28  O   UNL     1     -11.688   9.119   6.449  0.00  0.00    +0.000 OA
BRANCH  27  29
ATOM     29  C   UNL     1     -12.785   9.875   8.397  0.00  0.00    +0.000 C 
ATOM     30  F   UNL     1     -13.652  10.469   7.474  0.00  0.00    +0.000 F 
ATOM     31  F   UNL     1     -13.502   8.982   9.202  0.00  0.00    +0.000 F 
ATOM     32  F   UNL     1     -12.208  10.865   9.200  0.00  0.00    +0.000 F 
ENDBRANCH  27  29
ENDBRANCH  26  27
ENDBRANCH  24  26
ENDBRANCH  21  22
ENDBRANCH  20  21
ENDBRANCH   4  20
TORSDOF 9
ENDMDL
MODEL      649
REMARK  Name = ZINC29647851
REMARK  15 active torsions:
REMARK  status: ('A' for Active; 'I' for Inactive)
REMARK    1  A    between atoms: C_1  and  C_2
REMARK    2  A    between atoms: C_2  and  N_3
REMARK    3  A    between atoms: N_3  and  C_4
REMARK    4  A    between atoms: C_4  and  C_5
REMARK    5  A    between atoms: C_10  and  N_11
REMARK    6  A    between atoms: N_11  and  C_12
REMARK    7  A    between atoms: C_12  and  C_13
REMARK    8  A    between atoms: C_13  and  C_15
REMARK    9  A    between atoms: C_16  and  N_28
REMARK   10  A    between atoms: N_17  and  C_24
REMARK   11  A    between atoms: N_20  and  C_23
REMARK   12  A    between atoms: C_24  and  C_25
REMARK   13  A    between atoms: C_25  and  C_26
REMARK   14  A    between atoms: C_25  and  C_27
REMARK   15  A    between atoms: C_29  and  C_31
REMARK                            x       y       z     vdW  Elec       q    Type
REMARK                         _______ _______ _______ _____ _____    ______ ____
ROOT
ATOM      1  C   UNL     1       4.253   2.813   2.293  0.00  0.00    +0.000 C 
ATOM      2  O   UNL     1       3.497   3.527   2.920  0.00  0.00    +0.000 OA
ENDROOT
BRANCH   1   3
ATOM      3  C   UNL     1       3.794   1.586   1.769  0.00  0.00    +0.000 A 
ATOM      4  C   UNL     1       2.438   1.224   1.852  0.00  0.00    +0.000 A 
ATOM      5  N   UNL     1       2.041   0.026   1.330  0.00  0.00    +0.000 N 
ATOM      6  C   UNL     1       2.918  -0.806   0.748  0.00  0.00    +0.000 A 
ATOM      7  O   UNL     1       2.515  -1.863   0.303  0.00  0.00    +0.000 OA
ATOM      8  N   UNL     1       4.223  -0.513   0.635  0.00  0.00    +0.000 N 
ATOM      9  C   UNL     1       4.716   0.646   1.119  0.00  0.00    +0.000 A 
ATOM     10  O   UNL     1       5.901   0.907   1.019  0.00  0.00    +0.000 OA
ATOM     11  C   UNL     1       5.125  -1.465  -0.017  0.00  0.00    +0.000 C 
BRANCH   4  12
ATOM     12  N   UNL     1       1.536   2.054   2.443  0.00  0.00    +0.000 N 
ATOM     13  H   UNL     1       1.851   2.954   2.832  0.00  0.00    +0.000 HD
ATOM     14  H   UNL     1       0.543   1.784   2.502  0.00  0.00    +0.000 HD
ENDBRANCH   4  12
BRANCH   5  15
ATOM     15  C   UNL     1       0.630  -0.361   1.412  0.00  0.00    +0.000 C 
BRANCH  15  16
ATOM     16  C   UNL     1      -0.109   0.141   0.170  0.00  0.00    +0.000 C 
ATOM     17  C   UNL     1      -0.109   1.671   0.160  0.00  0.00    +0.000 C 
ATOM     18  C   UNL     1      -1.552  -0.368   0.195  0.00  0.00    +0.000 C 
ENDBRANCH  15  16
ENDBRANCH   5  15
ENDBRANCH   1   3
BRANCH   1  19
ATOM     19  C   UNL     1       5.683   3.237   2.075  0.00  0.00    +0.000 C 
BRANCH  19  20
ATOM     20  N   UNL     1       5.909   4.537   2.712  0.00  0.00    +0.000 N 
ATOM     21  H   UNL     1       5.140   5.007   3.210  0.00  0.00    +0.000 HD
BRANCH  20  27
ATOM     22  C   UNL     1       7.385   6.370   3.248  0.00  0.00    +0.000 A 
ATOM     23  C   UNL     1       8.631   6.961   3.180  0.00  0.00    +0.000 A 
ATOM     24  C   UNL     1       9.663   6.328   2.512  0.00  0.00    +0.000 A 
ATOM     25  C   UNL     1       9.451   5.101   1.910  0.00  0.00    +0.000 A 
ATOM     26  C   UNL     1       8.209   4.502   1.978  0.00  0.00    +0.000 A 
ATOM     27  C   UNL     1       7.168   5.138   2.645  0.00  0.00    +0.000 A 
BRANCH  22  28
ATOM     28  C   UNL     1       6.261   7.060   3.977  0.00  0.00    +0.000 C 
BRANCH  28  29
ATOM     29  N   UNL     1       6.181   6.549   5.348  0.00  0.00    +0.000 N 
ATOM     30  C   UNL     1       6.951   7.087   6.314  0.00  0.00    +0.000 C 
ATOM     31  O   UNL     1       7.710   7.995   6.049  0.00  0.00    +0.000 OA
ATOM     32  C   UNL     1       6.868   6.561   7.724  0.00  0.00    +0.000 C 
BRANCH  29  34
ATOM     33  C   UNL     1       6.026   4.126   5.641  0.00  0.00    +0.000 C 
ATOM     34  C   UNL     1       5.264   5.452   5.668  0.00  0.00    +0.000 C 
ENDBRANCH  29  34
ENDBRANCH  28  29
ENDBRANCH  22  28
ENDBRANCH  20  27
ENDBRANCH  19  20
ENDBRANCH   1  19
TORSDOF 10
ENDMDL
MODEL      650
REMARK  Name = ZINC23746653
REMARK  13 active torsions:
REMARK  status: ('A' for Active; 'I' for Inactive)
REMARK    1  A    between atoms: C_1  and  C_2
REMARK    2  A    between atoms: C_2  and  O_3
REMARK    3  A    between atoms: O_3  and  C_4
REMARK    4  A    between atoms: C_4  and  C_6
REMARK    5  A    between atoms: C_7  and  C_30
REMARK    6  A    between atoms: C_8  and  C_24
REMARK    7  A    between atoms: C_10  and  N_11
REMARK    8  A    between atoms: C_12  and  C_14
REMARK    9  A    between atoms: C_14  and  N_15
REMARK   10  A    between atoms: C_19  and  C_21
REMARK   11  A    between atoms: C_24  and  O_26
REMARK   12  A    between atoms: O_26  and  C_27
REMARK   13  A    between atoms: C_27  and  C_28
REMARK                            x       y       z     vdW  Elec       q    Type
REMARK                         _______ _______ _______ _____ _____    ______ ____
ROOT
ATOM      1  C   UNL     1      -7.962  -0.814   3.460  0.00  0.00    +0.000 A 
ATOM      2  C   UNL     1      -8.133  -0.931   4.830  0.00  0.00    +0.000 A 
ATOM      3  C   UNL     1      -7.191  -0.356   5.640  0.00  0.00    +0.000 A 
ATOM      4  S   UNL     1      -6.048   0.352   4.471  0.00  0.00    +0.000 S 
ATOM      5  C   UNL     1      -6.839  -0.116   3.001  0.00  0.00    +0.000 A 
ATOM      6  C   UNL     1      -9.315  -1.666   5.408  0.00  0.00    +0.000 C 
ENDROOT
BRANCH   5   7
ATOM      7  N   UNL     1      -6.453   0.133   1.699  0.00  0.00    +0.000 N 
ATOM      8  C   UNL     1      -5.327   0.831   1.452  0.00  0.00    +0.000 C 
ATOM      9  O   UNL     1      -4.653   1.240   2.373  0.00  0.00    +0.000 OA
ATOM     10  H   UNL     1      -7.026  -0.215   0.917  0.00  0.00    +0.000 HD
BRANCH   8  11
ATOM     11  C   UNL     1      -4.906   1.103   0.030  0.00  0.00    +0.000 C 
BRANCH  11  12
ATOM     12  N   UNL     1      -3.660   1.873   0.029  0.00  0.00    +0.000 N 
ATOM     13  C   UNL     1      -3.721   3.191   0.037  0.00  0.00    +0.000 A 
ATOM     14  C   UNL     1      -2.571   3.960   0.036  0.00  0.00    +0.000 A 
ATOM     15  C   UNL     1      -1.337   3.332   0.032  0.00  0.00    +0.000 A 
ATOM     16  C   UNL     1      -1.305   1.933   0.019  0.00  0.00    +0.000 A 
ATOM     17  C   UNL     1      -2.511   1.231   0.021  0.00  0.00    +0.000 A 
BRANCH  16  18
ATOM     18  C   UNL     1      -0.014   1.211   0.009  0.00  0.00    +0.000 C 
ATOM     19  O   UNL     1       0.002  -0.004   0.002  0.00  0.00    +0.000 OA
ATOM     20  N   UNL     1       1.143   1.901   0.001  0.00  0.00    +0.000 N 
ATOM     21  H   UNL     1       1.129   2.931   0.003  0.00  0.00    +0.000 HD
ATOM     22  H   UNL     1       2.042   1.398  -0.006  0.00  0.00    +0.000 HD
ENDBRANCH  16  18
ENDBRANCH  11  12
ENDBRANCH   8  11
ENDBRANCH   5   7
BRANCH   1  23
ATOM     23  C   UNL     1      -8.925  -1.401   2.522  0.00  0.00    +0.000 C 
ATOM     24  O   UNL     1      -8.771  -2.540   2.125  0.00  0.00    +0.000 OA
BRANCH  23  25
ATOM     25  O   UNL     1      -9.982  -0.677   2.099  0.00  0.00    +0.000 OA
BRANCH  25  27
ATOM     26  C   UNL     1     -12.021  -0.353   0.808  0.00  0.00    +0.000 C 
ATOM     27  C   UNL     1     -10.894  -1.322   1.171  0.00  0.00    +0.000 C 
ENDBRANCH  25  27
ENDBRANCH  23  25
ENDBRANCH   1  23
BRANCH   3  28
ATOM     28  C   UNL     1      -7.134  -0.334   7.101  0.00  0.00    +0.000 C 
ATOM     29  O   UNL     1      -8.005  -0.878   7.753  0.00  0.00    +0.000 OA
BRANCH  28  30
ATOM     30  O   UNL     1      -6.115   0.291   7.727  0.00  0.00    +0.000 OA
BRANCH  30  31
ATOM     31  C   UNL     1      -6.123   0.273   9.156  0.00  0.00    +0.000 C 
BRANCH  31  32
ATOM     32  C   UNL     1      -4.917   1.014   9.674  0.00  0.00    +0.000 C 
ATOM     33  C   UNL     1      -5.046   1.869  10.659  0.00  0.00    +0.000 C 
ENDBRANCH  31  32
ENDBRANCH  30  31
ENDBRANCH  28  30
ENDBRANCH   3  28
TORSDOF 11
ENDMDL
MODEL      651
REMARK  Name = ZINC06193542
REMARK  14 active torsions:
REMARK  status: ('A' for Active; 'I' for Inactive)
REMARK    1  A    between atoms: C_1  and  C_2
REMARK    2  A    between atoms: C_2  and  N_31
REMARK    3  A    between atoms: C_3  and  C_4
REMARK    4  A    between atoms: C_3  and  N_31
REMARK    5  A    between atoms: C_5  and  C_6
REMARK    6  A    between atoms: C_5  and  N_31
REMARK    7  A    between atoms: C_6  and  N_7
REMARK    8  A    between atoms: N_12  and  C_13
REMARK    9  A    between atoms: C_13  and  C_14
REMARK   10  A    between atoms: C_14  and  C_15
REMARK   11  A    between atoms: C_14  and  O_23
REMARK   12  A    between atoms: C_15  and  O_16
REMARK   13  A    between atoms: O_16  and  C_17
REMARK   14  A    between atoms: N_29  and  C_30
REMARK                            x       y       z     vdW  Elec       q    Type
REMARK                         _______ _______ _______ _____ _____    ______ ____
ROOT
ATOM      1  N   UNL     1       8.533  -1.009   2.580  0.00  0.00    +0.000 N 
ATOM      2  C   UNL     1       8.976  -1.277   1.305  0.00  0.00    +0.000 A 
ATOM      3  N   UNL     1       9.996  -2.054   1.001  0.00  0.00    +0.000 NA
ATOM      4  C   UNL     1      10.160  -2.093  -0.322  0.00  0.00    +0.000 A 
ATOM      5  C   UNL     1       9.176  -1.292  -0.891  0.00  0.00    +0.000 A 
ATOM      6  N   UNL     1       8.429  -0.783   0.163  0.00  0.00    +0.000 N 
ATOM      7  C   UNL     1       9.123  -1.158  -2.290  0.00  0.00    +0.000 A 
ATOM      8  O   UNL     1       8.269  -0.462  -2.810  0.00  0.00    +0.000 OA
ATOM      9  N   UNL     1      10.028  -1.808  -3.050  0.00  0.00    +0.000 N 
ATOM     10  C   UNL     1      10.976  -2.580  -2.490  0.00  0.00    +0.000 A 
ATOM     11  O   UNL     1      11.775  -3.151  -3.207  0.00  0.00    +0.000 OA
ATOM     12  N   UNL     1      11.061  -2.736  -1.156  0.00  0.00    +0.000 N 
ATOM     13  C   UNL     1      12.109  -3.586  -0.584  0.00  0.00    +0.000 C 
ATOM     14  H   UNL     1       7.723  -0.389   2.724  0.00  0.00    +0.000 HD
ATOM     15  H   UNL     1       9.993  -1.712  -4.075  0.00  0.00    +0.000 HD
ENDROOT
BRANCH   6  16
ATOM     16  C   UNL     1       7.277   0.117   0.064  0.00  0.00    +0.000 C 
BRANCH  16  17
ATOM     17  C   UNL     1       5.993  -0.708  -0.047  0.00  0.00    +0.000 C 
BRANCH  17  18
ATOM     18  O   UNL     1       6.004  -1.445  -1.272  0.00  0.00    +0.000 OA
ATOM     19  H   UNL     1       6.787  -2.050  -1.286  0.00  0.00    +0.000 HD
ENDBRANCH  17  18
BRANCH  17  20
ATOM     20  C   UNL     1       4.782   0.227  -0.025  0.00  0.00    +0.000 C 
BRANCH  20  21
ATOM     21  O   UNL     1       3.582  -0.548  -0.011  0.00  0.00    +0.000 OA
BRANCH  21  22
ATOM     22  C   UNL     1       2.407   0.135   0.009  0.00  0.00    +0.000 A 
ATOM     23  C   UNL     1       1.203  -0.554   0.024  0.00  0.00    +0.000 A 
ATOM     24  C   UNL     1       0.010   0.142   0.044  0.00  0.00    +0.000 A 
ATOM     25  C   UNL     1       0.015   1.524   0.049  0.00  0.00    +0.000 A 
ATOM     26  C   UNL     1       1.214   2.214   0.035  0.00  0.00    +0.000 A 
ATOM     27  C   UNL     1       2.409   1.522   0.015  0.00  0.00    +0.000 A 
ENDBRANCH  21  22
ENDBRANCH  20  21
ENDBRANCH  17  20
ENDBRANCH  16  17
ENDBRANCH   6  16
BRANCH   1  28
ATOM     28  C   UNL     1       9.213  -1.606   3.732  0.00  0.00    +0.000 C 
BRANCH  28  29
ATOM     29  C   UNL     1       8.526  -1.150   5.021  0.00  0.00    +0.000 C 
BRANCH  29  30
ATOM     30  N   UNL     1       9.132  -1.871   6.161  0.00  0.00    +0.000 N 
ATOM     31  H   UNL     1       9.271  -2.857   5.897  0.00  0.00    +0.000 HD
BRANCH  30  32
ATOM     32  C   UNL     1       8.233  -1.810   7.332  0.00  0.00    +0.000 C 
ATOM     33  C   UNL     1       7.095  -2.813   7.130  0.00  0.00    +0.000 C 
ENDBRANCH  30  32
BRANCH  30  35
ATOM     34  C   UNL     1      11.143  -2.168   7.521  0.00  0.00    +0.000 C 
ATOM     35  C   UNL     1      10.441  -1.274   6.497  0.00  0.00    +0.000 C 
ENDBRANCH  30  35
ENDBRANCH  29  30
ENDBRANCH  28  29
ENDBRANCH   1  28
TORSDOF 11
ENDMDL
MODEL      652
REMARK  Name = ZINC31219118
REMARK  11 active torsions:
REMARK  status: ('A' for Active; 'I' for Inactive)
REMARK    1  A    between atoms: C_1  and  S_2
REMARK    2  A    between atoms: S_2  and  N_5
REMARK    3  A    between atoms: N_5  and  C_6
REMARK    4  A    between atoms: C_6  and  C_7
REMARK    5  A    between atoms: C_7  and  C_8
REMARK    6  A    between atoms: C_8  and  N_9
REMARK    7  A    between atoms: C_10  and  C_12
REMARK    8  A    between atoms: C_16  and  S_18
REMARK    9  A    between atoms: S_18  and  N_21
REMARK   10  A    between atoms: N_21  and  C_22
REMARK   11  A    between atoms: C_22  and  C_23
REMARK                            x       y       z     vdW  Elec       q    Type
REMARK                         _______ _______ _______ _____ _____    ______ ____
ROOT
ATOM      1  C   UNL     1      -3.569  -1.026  -2.986  0.00  0.00    +0.000 A 
ATOM      2  C   UNL     1      -4.441   0.053  -2.830  0.00  0.00    +0.000 A 
ATOM      3  C   UNL     1      -4.365   0.840  -1.699  0.00  0.00    +0.000 A 
ATOM      4  C   UNL     1      -3.430   0.558  -0.719  0.00  0.00    +0.000 A 
ATOM      5  C   UNL     1      -2.559  -0.506  -0.870  0.00  0.00    +0.000 A 
ATOM      6  C   UNL     1      -2.625  -1.301  -1.996  0.00  0.00    +0.000 A 
ENDROOT
BRANCH   1   8
ATOM      7  N   UNL     1      -4.559  -1.604  -5.150  0.00  0.00    +0.000 N 
ATOM      8  C   UNL     1      -3.646  -1.873  -4.195  0.00  0.00    +0.000 C 
ATOM      9  O   UNL     1      -2.886  -2.812  -4.329  0.00  0.00    +0.000 OA
ATOM     10  H   UNL     1      -5.203  -0.808  -5.037  0.00  0.00    +0.000 HD
BRANCH   7  11
ATOM     11  C   UNL     1      -4.635  -2.444  -6.348  0.00  0.00    +0.000 C 
BRANCH  11  12
ATOM     12  C   UNL     1      -5.747  -1.927  -7.263  0.00  0.00    +0.000 C 
BRANCH  12  13
ATOM     13  C   UNL     1      -5.826  -2.804  -8.514  0.00  0.00    +0.000 C 
BRANCH  13  14
ATOM     14  N   UNL     1      -6.890  -2.308  -9.391  0.00  0.00    +0.000 NA
ATOM     15  H   UNL     1      -7.590  -1.646  -9.028  0.00  0.00    +0.000 HD
BRANCH  14  17
ATOM     16  C   UNL     1      -7.314  -4.593 -10.867  0.00  0.00    +0.000 C 
ATOM     17  S   UNL     1      -6.968  -2.815 -10.966  0.00  0.00    +0.000 S 
ATOM     18  O   UNL     1      -8.086  -2.128 -11.512  0.00  0.00    +0.000 OA
ATOM     19  O   UNL     1      -5.662  -2.598 -11.482  0.00  0.00    +0.000 OA
ENDBRANCH  14  17
ENDBRANCH  13  14
ENDBRANCH  12  13
ENDBRANCH  11  12
ENDBRANCH   7  11
ENDBRANCH   1   8
BRANCH   5  20
ATOM     20  S   UNL     1      -1.368  -0.853   0.382  0.00  0.00    +0.000 S 
ATOM     21  O   UNL     1      -1.040  -2.230   0.260  0.00  0.00    +0.000 OA
ATOM     22  O   UNL     1      -1.871  -0.293   1.587  0.00  0.00    +0.000 OA
BRANCH  20  23
ATOM     23  N   UNL     1       0.002  -0.004   0.002  0.00  0.00    +0.000 NA
ATOM     24  H   UNL     1       0.868  -0.506  -0.240  0.00  0.00    +0.000 HD
BRANCH  23  25
ATOM     25  C   UNL     1      -0.018   1.461   0.010  0.00  0.00    +0.000 C 
BRANCH  25  26
ATOM     26  C   UNL     1       1.396   1.982  -0.001  0.00  0.00    +0.000 A 
ATOM     27  C   UNL     1       2.189   2.278  -1.060  0.00  0.00    +0.000 A 
ATOM     28  C   UNL     1       3.466   2.753  -0.829  0.00  0.00    +0.000 A 
ATOM     29  C   UNL     1       3.892   2.898   0.450  0.00  0.00    +0.000 A 
ATOM     30  S   UNL     1       2.464   2.364   1.378  0.00  0.00    +0.000 S 
ENDBRANCH  25  26
ENDBRANCH  23  25
ENDBRANCH  20  23
ENDBRANCH   5  20
TORSDOF 10
ENDMDL
MODEL      653
REMARK  Name = ZINC24195016
REMARK  13 active torsions:
REMARK  status: ('A' for Active; 'I' for Inactive)
REMARK    1  A    between atoms: C_1  and  C_2
REMARK    2  A    between atoms: C_2  and  O_3
REMARK    3  A    between atoms: O_3  and  C_4
REMARK    4  A    between atoms: C_4  and  C_6
REMARK    5  A    between atoms: C_7  and  C_14
REMARK    6  A    between atoms: C_12  and  C_13
REMARK    7  A    between atoms: C_14  and  O_15
REMARK    8  A    between atoms: O_15  and  C_16
REMARK    9  A    between atoms: C_16  and  C_18
REMARK   10  A    between atoms: C_18  and  N_19
REMARK   11  A    between atoms: N_19  and  C_20
REMARK   12  A    between atoms: N_19  and  S_21
REMARK   13  A    between atoms: S_21  and  C_24
REMARK                            x       y       z     vdW  Elec       q    Type
REMARK                         _______ _______ _______ _____ _____    ______ ____
ROOT
ATOM      1  C   UNL     1       1.382   2.103  -0.055  0.00  0.00    +0.000 C 
ATOM      2  C   UNL     1       1.794   2.872   0.976  0.00  0.00    +0.000 C 
ATOM      3  N   UNL     1       0.969   3.132   2.033  0.00  0.00    +0.000 N 
ATOM      4  C   UNL     1      -0.280   2.662   2.134  0.00  0.00    +0.000 C 
ATOM      5  O   UNL     1      -0.939   2.949   3.115  0.00  0.00    +0.000 OA
ATOM      6  N   UNL     1      -0.831   1.880   1.185  0.00  0.00    +0.000 N 
ATOM      7  C   UNL     1      -0.023   1.540   0.001  0.00  0.00    +0.000 C 
ATOM      8  C   UNL     1       0.075   0.015  -0.080  0.00  0.00    +0.000 C 
ATOM      9  H   UNL     1       1.329   3.724   2.795  0.00  0.00    +0.000 HD
ATOM     10  H   UNL     1      -1.794   1.529   1.285  0.00  0.00    +0.000 HD
ENDROOT
BRANCH   1  11
ATOM     11  C   UNL     1       2.235   1.832  -1.151  0.00  0.00    +0.000 C 
ATOM     12  O   UNL     1       2.099   2.446  -2.193  0.00  0.00    +0.000 OA
BRANCH  11  13
ATOM     13  O   UNL     1       3.198   0.894  -1.041  0.00  0.00    +0.000 OA
BRANCH  13  15
ATOM     14  C   UNL     1       5.049  -0.417  -1.875  0.00  0.00    +0.000 C 
ATOM     15  C   UNL     1       4.023   0.673  -2.188  0.00  0.00    +0.000 C 
ENDBRANCH  13  15
ENDBRANCH  11  13
ENDBRANCH   1  11
BRANCH   2  16
ATOM     16  C   UNL     1       3.184   3.451   0.960  0.00  0.00    +0.000 C 
BRANCH  16  17
ATOM     17  O   UNL     1       3.104   4.899   0.874  0.00  0.00    +0.000 OA
BRANCH  17  18
ATOM     18  C   UNL     1       4.265   5.573   0.850  0.00  0.00    +0.000 C 
ATOM     19  O   UNL     1       5.313   4.973   0.898  0.00  0.00    +0.000 OA
BRANCH  18  20
ATOM     20  C   UNL     1       4.261   7.077   0.762  0.00  0.00    +0.000 C 
BRANCH  20  21
ATOM     21  N   UNL     1       5.640   7.570   0.751  0.00  0.00    +0.000 NA
ATOM     22  C   UNL     1       6.352   7.785   2.013  0.00  0.00    +0.000 C 
BRANCH  21  23
ATOM     23  S   UNL     1       6.396   7.882  -0.689  0.00  0.00    +0.000 S 
ATOM     24  O   UNL     1       7.793   7.788  -0.444  0.00  0.00    +0.000 OA
ATOM     25  O   UNL     1       5.740   7.093  -1.672  0.00  0.00    +0.000 OA
BRANCH  23  26
ATOM     26  C   UNL     1       6.069   9.566  -1.095  0.00  0.00    +0.000 A 
ATOM     27  C   UNL     1       6.775  10.675  -0.767  0.00  0.00    +0.000 A 
ATOM     28  C   UNL     1       6.326  11.908  -1.203  0.00  0.00    +0.000 A 
ATOM     29  C   UNL     1       5.188  11.972  -1.936  0.00  0.00    +0.000 A 
ATOM     30  S   UNL     1       4.717  10.253  -2.037  0.00  0.00    +0.000 S 
ENDBRANCH  23  26
ENDBRANCH  21  23
ENDBRANCH  20  21
ENDBRANCH  18  20
ENDBRANCH  17  18
ENDBRANCH  16  17
ENDBRANCH   2  16
TORSDOF 10
ENDMDL
MODEL      654
REMARK  Name = ZINC29188439
REMARK  17 active torsions:
REMARK  status: ('A' for Active; 'I' for Inactive)
REMARK    1  A    between atoms: C_1  and  C_2
REMARK    2  A    between atoms: C_2  and  C_3
REMARK    3  A    between atoms: C_3  and  O_4
REMARK    4  A    between atoms: O_4  and  C_5
REMARK    5  A    between atoms: C_8  and  C_15
REMARK    6  A    between atoms: C_10  and  O_11
REMARK    7  A    between atoms: O_11  and  C_12
REMARK    8  A    between atoms: C_12  and  C_13
REMARK    9  A    between atoms: C_13  and  C_14
REMARK   10  A    between atoms: C_15  and  C_16
REMARK   11  A    between atoms: C_15  and  N_17
REMARK   12  A    between atoms: N_17  and  C_18
REMARK   13  A    between atoms: C_18  and  C_19
REMARK   14  A    between atoms: N_21  and  N_22
REMARK   15  A    between atoms: C_25  and  C_29
REMARK   16  A    between atoms: C_25  and  C_30
REMARK   17  A    between atoms: C_30  and  C_31
REMARK                            x       y       z     vdW  Elec       q    Type
REMARK                         _______ _______ _______ _____ _____    ______ ____
ROOT
ATOM      1  N   UNL     1      -5.737  -0.080   5.647  0.00  0.00    +0.000 N 
ATOM      2  H   UNL     1      -6.042   0.851   5.329  0.00  0.00    +0.000 HD
ATOM      3  H   UNL     1      -5.041   0.037   6.397  0.00  0.00    +0.000 HD
ENDROOT
BRANCH   1   4
ATOM      4  C   UNL     1      -6.895  -0.818   6.168  0.00  0.00    +0.000 C 
ATOM      5  C   UNL     1      -6.421  -1.863   7.180  0.00  0.00    +0.000 C 
BRANCH   4   9
ATOM      6  C   UNL     1      -9.572   1.911   8.084  0.00  0.00    +0.000 A 
ATOM      7  C   UNL     1      -8.203   2.055   8.240  0.00  0.00    +0.000 A 
ATOM      8  C   UNL     1      -7.340   1.171   7.619  0.00  0.00    +0.000 A 
ATOM      9  C   UNL     1      -7.840   0.142   6.843  0.00  0.00    +0.000 A 
ATOM     10  C   UNL     1      -9.205  -0.004   6.679  0.00  0.00    +0.000 A 
ATOM     11  C   UNL     1     -10.075   0.876   7.303  0.00  0.00    +0.000 A 
BRANCH   6  12
ATOM     12  O   UNL     1     -10.422   2.780   8.694  0.00  0.00    +0.000 OA
BRANCH  12  13
ATOM     13  C   UNL     1      -9.835   3.819   9.480  0.00  0.00    +0.000 C 
BRANCH  13  15
ATOM     14  C   UNL     1     -10.310   5.803  10.923  0.00  0.00    +0.000 C 
ATOM     15  C   UNL     1     -10.939   4.690  10.081  0.00  0.00    +0.000 C 
ENDBRANCH  13  15
ENDBRANCH  12  13
ENDBRANCH   6  12
BRANCH  11  16
ATOM     16  O   UNL     1     -11.419   0.730   7.147  0.00  0.00    +0.000 OA
BRANCH  16  17
ATOM     17  C   UNL     1     -11.863  -0.355   6.332  0.00  0.00    +0.000 C 
BRANCH  17  18
ATOM     18  C   UNL     1     -13.392  -0.358   6.275  0.00  0.00    +0.000 C 
ATOM     19  C   UNL     1     -13.868  -1.520   5.401  0.00  0.00    +0.000 C 
ENDBRANCH  17  18
ENDBRANCH  16  17
ENDBRANCH  11  16
ENDBRANCH   4   9
ENDBRANCH   1   4
BRANCH   1  20
ATOM     20  C   UNL     1      -5.118  -0.796   4.523  0.00  0.00    +0.000 C 
BRANCH  20  21
ATOM     21  C   UNL     1      -3.936  -0.011   4.016  0.00  0.00    +0.000 C 
ATOM     22  O   UNL     1      -3.638   1.042   4.539  0.00  0.00    +0.000 OA
ATOM     23  N   UNL     1      -3.211  -0.478   2.981  0.00  0.00    +0.000 N 
ATOM     24  H   UNL     1      -3.464  -1.372   2.536  0.00  0.00    +0.000 HD
BRANCH  23  25
ATOM     25  N   UNL     1      -2.112   0.252   2.509  0.00  0.00    +0.000 N 
ATOM     26  C   UNL     1      -2.112   0.968   1.368  0.00  0.00    +0.000 C 
ATOM     27  O   UNL     1      -3.029   1.097   0.585  0.00  0.00    +0.000 OA
ATOM     28  C   UNL     1      -0.729   1.579   1.267  0.00  0.00    +0.000 C 
ATOM     29  N   UNL     1      -0.045   1.091   2.477  0.00  0.00    +0.000 NA
ATOM     30  C   UNL     1      -0.933   0.325   3.137  0.00  0.00    +0.000 C 
ATOM     31  O   UNL     1      -0.690  -0.237   4.187  0.00  0.00    +0.000 OA
ATOM     32  C   UNL     1      -0.013   1.086   0.008  0.00  0.00    +0.000 C 
BRANCH  28  33
ATOM     33  C   UNL     1      -0.810   3.107   1.274  0.00  0.00    +0.000 C 
ATOM     34  C   UNL     1       0.603   3.693   1.227  0.00  0.00    +0.000 C 
ENDBRANCH  28  33
ENDBRANCH  23  25
ENDBRANCH  20  21
ENDBRANCH   1  20
TORSDOF 12
ENDMDL
MODEL      655
REMARK  Name = ZINC25820808
REMARK  11 active torsions:
REMARK  status: ('A' for Active; 'I' for Inactive)
REMARK    1  A    between atoms: C_3  and  N_28
REMARK    2  A    between atoms: C_4  and  C_10
REMARK    3  A    between atoms: C_6  and  N_7
REMARK    4  A    between atoms: C_10  and  O_12
REMARK    5  A    between atoms: O_12  and  C_13
REMARK    6  A    between atoms: C_13  and  C_14
REMARK    7  A    between atoms: C_14  and  C_16
REMARK    8  A    between atoms: C_18  and  C_21
REMARK    9  A    between atoms: N_28  and  C_29
REMARK   10  A    between atoms: C_29  and  C_30
REMARK   11  A    between atoms: C_30  and  O_31
REMARK                            x       y       z     vdW  Elec       q    Type
REMARK                         _______ _______ _______ _____ _____    ______ ____
ROOT
ATOM      1  C   UNL     1       0.875   3.550  -0.015  0.00  0.00    +0.000 C 
ATOM      2  O   UNL     1      -0.235   4.036   0.083  0.00  0.00    +0.000 OA
ENDROOT
BRANCH   1   6
ATOM      3  C   UNL     1       1.357  -0.670  -0.001  0.00  0.00    +0.000 A 
ATOM      4  C   UNL     1       0.086  -0.131  -0.012  0.00  0.00    +0.000 A 
ATOM      5  C   UNL     1      -0.085   1.248  -0.017  0.00  0.00    +0.000 A 
ATOM      6  C   UNL     1       1.041   2.087  -0.010  0.00  0.00    +0.000 A 
ATOM      7  C   UNL     1       2.321   1.525   0.000  0.00  0.00    +0.000 A 
ATOM      8  C   UNL     1       2.470   0.155   0.005  0.00  0.00    +0.000 A 
BRANCH   8   9
ATOM      9  N   UNL     1       3.826  -0.438   0.016  0.00  0.00    +0.000 N 
ATOM     10  O   UNL     1       3.961  -1.648   0.020  0.00  0.00    +0.000 OA
ATOM     11  O   UNL     1       4.806   0.285   0.021  0.00  0.00    +0.000 OA
ENDBRANCH   8   9
BRANCH   5  12
ATOM     12  N   UNL     1      -1.361   1.793  -0.034  0.00  0.00    +0.000 N 
ATOM     13  H   UNL     1      -1.488   2.811   0.050  0.00  0.00    +0.000 HD
BRANCH  12  14
ATOM     14  C   UNL     1      -2.529   0.919  -0.170  0.00  0.00    +0.000 C 
BRANCH  14  15
ATOM     15  C   UNL     1      -3.804   1.765  -0.160  0.00  0.00    +0.000 C 
BRANCH  15  16
ATOM     16  O   UNL     1      -3.825   2.607  -1.315  0.00  0.00    +0.000 OA
ATOM     17  H   UNL     1      -3.806   2.049  -2.132  0.00  0.00    +0.000 HD
ENDBRANCH  15  16
ENDBRANCH  14  15
ENDBRANCH  12  14
ENDBRANCH   5  12
ENDBRANCH   1   6
BRANCH   1  18
ATOM     18  O   UNL     1       1.953   4.351  -0.130  0.00  0.00    +0.000 OA
BRANCH  18  19
ATOM     19  C   UNL     1       1.714   5.783  -0.128  0.00  0.00    +0.000 C 
BRANCH  19  20
ATOM     20  C   UNL     1       3.026   6.512  -0.263  0.00  0.00    +0.000 C 
ATOM     21  O   UNL     1       4.061   5.885  -0.353  0.00  0.00    +0.000 OA
BRANCH  20  22
ATOM     22  C   UNL     1       3.052   7.977  -0.287  0.00  0.00    +0.000 A 
ATOM     23  C   UNL     1       4.199   8.798  -0.408  0.00  0.00    +0.000 A 
ATOM     24  C   UNL     1       3.768  10.090  -0.386  0.00  0.00    +0.000 A 
ATOM     25  N   UNL     1       2.396  10.089  -0.255  0.00  0.00    +0.000 N 
ATOM     26  C   UNL     1       1.957   8.823  -0.201  0.00  0.00    +0.000 A 
ATOM     27  H   UNL     1       1.801  10.929  -0.207  0.00  0.00    +0.000 HD
BRANCH  24  28
ATOM     28  C   UNL     1       4.621  11.282  -0.485  0.00  0.00    +0.000 C 
ATOM     29  O   UNL     1       5.826  11.160  -0.598  0.00  0.00    +0.000 OA
ATOM     30  N   UNL     1       4.068  12.511  -0.450  0.00  0.00    +0.000 N 
ATOM     31  C   UNL     1       2.632  12.801  -0.324  0.00  0.00    +0.000 C 
ATOM     32  C   UNL     1       2.471  14.335  -0.353  0.00  0.00    +0.000 C 
ATOM     33  C   UNL     1       3.764  14.805  -1.071  0.00  0.00    +0.000 C 
ATOM     34  C   UNL     1       4.802  13.786  -0.539  0.00  0.00    +0.000 C 
ENDBRANCH  24  28
ENDBRANCH  20  22
ENDBRANCH  19  20
ENDBRANCH  18  19
ENDBRANCH   1  18
TORSDOF 11
ENDMDL
MODEL      656
REMARK  Name = ZINC27197223
REMARK  13 active torsions:
REMARK  status: ('A' for Active; 'I' for Inactive)
REMARK    1  A    between atoms: C_1  and  O_2
REMARK    2  A    between atoms: O_2  and  C_3
REMARK    3  A    between atoms: C_3  and  C_4
REMARK    4  A    between atoms: C_4  and  C_5
REMARK    5  A    between atoms: C_5  and  N_6
REMARK    6  A    between atoms: C_7  and  C_21
REMARK    7  A    between atoms: C_10  and  S_11
REMARK    8  A    between atoms: S_11  and  C_12
REMARK    9  A    between atoms: C_12  and  C_13
REMARK   10  A    between atoms: C_24  and  O_29
REMARK   11  A    between atoms: C_25  and  O_27
REMARK   12  A    between atoms: O_27  and  C_28
REMARK   13  A    between atoms: O_29  and  C_30
REMARK                            x       y       z     vdW  Elec       q    Type
REMARK                         _______ _______ _______ _____ _____    ______ ____
ROOT
ATOM      1  N   UNL     1      -1.040  -0.694  -0.021  0.00  0.00    +0.000 N 
ATOM      2  C   UNL     1      -0.697  -2.027  -0.029  0.00  0.00    +0.000 A 
ATOM      3  N   UNL     1       0.614  -2.088  -0.003  0.00  0.00    +0.000 NA
ATOM      4  N   UNL     1       1.108  -0.901   0.015  0.00  0.00    +0.000 NA
ATOM      5  C   UNL     1       0.143  -0.010   0.010  0.00  0.00    +0.000 A 
ENDROOT
BRANCH   2   6
ATOM      6  C   UNL     1      -1.629  -3.174  -0.060  0.00  0.00    +0.000 A 
ATOM      7  C   UNL     1      -2.948  -2.991  -0.479  0.00  0.00    +0.000 A 
ATOM      8  C   UNL     1      -3.817  -4.063  -0.508  0.00  0.00    +0.000 A 
ATOM      9  C   UNL     1      -3.383  -5.322  -0.120  0.00  0.00    +0.000 A 
ATOM     10  C   UNL     1      -2.069  -5.510   0.299  0.00  0.00    +0.000 A 
ATOM     11  C   UNL     1      -1.191  -4.442   0.325  0.00  0.00    +0.000 A 
BRANCH   9  12
ATOM     12  O   UNL     1      -4.243  -6.374  -0.150  0.00  0.00    +0.000 OA
ATOM     13  C   UNL     1      -5.577  -6.110  -0.591  0.00  0.00    +0.000 C 
ENDBRANCH   9  12
BRANCH  10  14
ATOM     14  O   UNL     1      -1.647  -6.746   0.679  0.00  0.00    +0.000 OA
ATOM     15  C   UNL     1      -0.286  -6.866   1.098  0.00  0.00    +0.000 C 
ENDBRANCH  10  14
ENDBRANCH   2   6
BRANCH   1  16
ATOM     16  C   UNL     1      -2.390  -0.127  -0.042  0.00  0.00    +0.000 C 
BRANCH  16  17
ATOM     17  C   UNL     1      -2.796   0.171  -1.487  0.00  0.00    +0.000 C 
BRANCH  17  18
ATOM     18  C   UNL     1      -4.207   0.763  -1.508  0.00  0.00    +0.000 C 
BRANCH  18  20
ATOM     19  C   UNL     1      -5.894   1.601  -2.990  0.00  0.00    +0.000 C 
ATOM     20  O   UNL     1      -4.586   1.042  -2.858  0.00  0.00    +0.000 OA
ENDBRANCH  18  20
ENDBRANCH  17  18
ENDBRANCH  16  17
ENDBRANCH   1  16
BRANCH   5  21
ATOM     21  S   UNL     1       0.337   1.741   0.032  0.00  0.00    +0.000 S 
BRANCH  21  22
ATOM     22  C   UNL     1       2.142   1.857   0.070  0.00  0.00    +0.000 C 
BRANCH  22  23
ATOM     23  C   UNL     1       2.552   3.307   0.093  0.00  0.00    +0.000 A 
ATOM     24  N   UNL     1       2.760   3.951  -1.041  0.00  0.00    +0.000 NA
ATOM     25  C   UNL     1       3.118   5.233  -1.025  0.00  0.00    +0.000 A 
ATOM     26  N   UNL     1       3.276   5.862   0.135  0.00  0.00    +0.000 NA
ATOM     27  C   UNL     1       3.071   5.210   1.274  0.00  0.00    +0.000 A 
ATOM     28  N   UNL     1       2.708   3.929   1.249  0.00  0.00    +0.000 NA
ATOM     29  N   UNL     1       3.233   5.858   2.481  0.00  0.00    +0.000 N 
ATOM     30  N   UNL     1       3.330   5.907  -2.211  0.00  0.00    +0.000 N 
ATOM     31  H   UNL     1       3.514   6.849   2.498  0.00  0.00    +0.000 HD
ATOM     32  H   UNL     1       3.074   5.352   3.363  0.00  0.00    +0.000 HD
ATOM     33  H   UNL     1       3.211   5.417  -3.109  0.00  0.00    +0.000 HD
ATOM     34  H   UNL     1       3.607   6.899  -2.197  0.00  0.00    +0.000 HD
ENDBRANCH  22  23
ENDBRANCH  21  22
ENDBRANCH   5  21
TORSDOF 10
ENDMDL
MODEL      657
REMARK  Name = ZINC31540682
REMARK  15 active torsions:
REMARK  status: ('A' for Active; 'I' for Inactive)
REMARK    1  A    between atoms: C_4  and  N_14
REMARK    2  A    between atoms: C_5  and  C_7
REMARK    3  A    between atoms: C_7  and  C_8
REMARK    4  A    between atoms: C_8  and  CA_9
REMARK    5  A    between atoms: CA_9  and  C_11
REMARK    6  A    between atoms: N_14  and  C_15
REMARK    7  A    between atoms: C_15  and  C_16
REMARK    8  A    between atoms: C_15  and  C_23
REMARK    9  A    between atoms: C_16  and  N_17
REMARK   10  A    between atoms: C_18  and  C_20
REMARK   11  A    between atoms: C_20  and  C_21
REMARK   12  A    between atoms: C_21  and  N_22
REMARK   13  A    between atoms: C_25  and  O_31
REMARK   14  A    between atoms: C_26  and  O_30
REMARK   15  A    between atoms: C_27  and  O_29
REMARK                            x       y       z     vdW  Elec       q    Type
REMARK                         _______ _______ _______ _____ _____    ______ ____
ROOT
ATOM      1  C   UNL     1       2.645   3.712   2.891  0.00  0.00    +0.000 C 
ENDROOT
BRANCH   1   2
ATOM      2  C   UNL     1       3.922   3.135   2.336  0.00  0.00    +0.000 A 
ATOM      3  C   UNL     1       3.979   2.730   1.015  0.00  0.00    +0.000 A 
ATOM      4  C   UNL     1       5.153   2.204   0.499  0.00  0.00    +0.000 A 
ATOM      5  C   UNL     1       6.271   2.072   1.315  0.00  0.00    +0.000 A 
ATOM      6  C   UNL     1       6.208   2.475   2.644  0.00  0.00    +0.000 A 
ATOM      7  C   UNL     1       5.031   3.006   3.151  0.00  0.00    +0.000 A 
BRANCH   4   8
ATOM      8  O   UNL     1       5.210   1.811  -0.801  0.00  0.00    +0.000 OA
ATOM      9  H   UNL     1       4.949   2.612  -1.321  0.00  0.00    +0.000 HD
ENDBRANCH   4   8
BRANCH   5  10
ATOM     10  O   UNL     1       7.423   1.550   0.814  0.00  0.00    +0.000 OA
ATOM     11  H   UNL     1       7.645   2.122   0.037  0.00  0.00    +0.000 HD
ENDBRANCH   5  10
BRANCH   6  12
ATOM     12  O   UNL     1       7.299   2.348   3.446  0.00  0.00    +0.000 OA
ATOM     13  H   UNL     1       8.016   2.847   2.982  0.00  0.00    +0.000 HD
ENDBRANCH   6  12
ENDBRANCH   1   2
BRANCH   1  14
ATOM     14  N   UNL     1       1.501   2.965   2.361  0.00  0.00    +0.000 N 
ATOM     15  H   UNL     1       1.004   3.308   1.527  0.00  0.00    +0.000 HD
BRANCH  14  19
ATOM     16  C   UNL     1       0.258  -0.541   4.231  0.00  0.00    +0.000 A 
ATOM     17  C   UNL     1       1.338   0.162   4.732  0.00  0.00    +0.000 A 
ATOM     18  C   UNL     1       1.753   1.325   4.114  0.00  0.00    +0.000 A 
ATOM     19  C   UNL     1       1.084   1.789   2.988  0.00  0.00    +0.000 A 
ATOM     20  C   UNL     1       0.000   1.080   2.488  0.00  0.00    +0.000 A 
ATOM     21  C   UNL     1      -0.413  -0.080   3.114  0.00  0.00    +0.000 A 
BRANCH  20  22
ATOM     22  C   UNL     1      -0.729   1.579   1.267  0.00  0.00    +0.000 C 
BRANCH  22  23
ATOM     23  C   UNL     1      -0.013   1.086   0.008  0.00  0.00    +0.000 C 
BRANCH  23  24
ATOM     24  CA  UNL     1      -0.742   1.585  -1.213  0.00  0.00    +0.000 C 
ATOM     25  N   UNL     1      -1.791   2.306  -1.081  0.00  0.00    +0.000 NA
ATOM     26  H   UNL     1      -2.138   2.545  -0.141  0.00  0.00    +0.000 HD
BRANCH  24  27
ATOM     27  C   UNL     1      -0.243   1.241  -2.566  0.00  0.00    +0.000 C 
ATOM     28  O   UNL     1       0.752   0.557  -2.691  0.00  0.00    +0.000 OA
ATOM     29  OXT UNL     1      -0.894   1.687  -3.657  0.00  0.00    +0.000 OA
ENDBRANCH  24  27
ENDBRANCH  23  24
ENDBRANCH  22  23
ENDBRANCH  20  22
ENDBRANCH  14  19
ENDBRANCH   1  14
BRANCH   1  30
ATOM     30  C   UNL     1       2.529   5.181   2.481  0.00  0.00    +0.000 C 
BRANCH  30  31
ATOM     31  N   UNL     1       1.235   5.710   2.917  0.00  0.00    +0.000 N 
ATOM     32  C   UNL     1       0.910   6.993   2.663  0.00  0.00    +0.000 C 
ATOM     33  O   UNL     1       1.690   7.710   2.073  0.00  0.00    +0.000 OA
ATOM     34  H   UNL     1       0.572   5.100   3.419  0.00  0.00    +0.000 HD
BRANCH  32  35
ATOM     35  C   UNL     1      -0.422   7.536   3.113  0.00  0.00    +0.000 C 
BRANCH  35  36
ATOM     36  C   UNL     1      -0.538   9.005   2.703  0.00  0.00    +0.000 C 
BRANCH  36  37
ATOM     37  N   UNL     1      -1.836   9.535   3.140  0.00  0.00    +0.000 N 
ATOM     38  H   UNL     1      -1.911   9.458   4.165  0.00  0.00    +0.000 HD
ATOM     39  H   UNL     1      -2.595   8.996   2.700  0.00  0.00    +0.000 HD
ATOM     40  H   UNL     1      -1.915  10.524   2.865  0.00  0.00    +0.000 HD
ENDBRANCH  36  37
ENDBRANCH  35  36
ENDBRANCH  32  35
ENDBRANCH  30  31
ENDBRANCH   1  30
TORSDOF 15
ENDMDL
MODEL      658
REMARK  Name = ZINC18663576
REMARK  12 active torsions:
REMARK  status: ('A' for Active; 'I' for Inactive)
REMARK    1  A    between atoms: C_1  and  C_2
REMARK    2  A    between atoms: C_2  and  N_3
REMARK    3  A    between atoms: C_7  and  S_9
REMARK    4  A    between atoms: S_9  and  C_10
REMARK    5  A    between atoms: C_10  and  C_11
REMARK    6  A    between atoms: N_13  and  C_14
REMARK    7  A    between atoms: C_17  and  O_26
REMARK    8  A    between atoms: C_18  and  S_20
REMARK    9  A    between atoms: S_20  and  N_23
REMARK   10  A    between atoms: N_23  and  C_24
REMARK   11  A    between atoms: N_23  and  C_25
REMARK   12  A    between atoms: O_26  and  C_27
REMARK                            x       y       z     vdW  Elec       q    Type
REMARK                         _______ _______ _______ _____ _____    ______ ____
ROOT
ATOM      1  C   UNL     1      -2.535   5.078  -0.439  0.00  0.00    +0.000 C 
ATOM      2  O   UNL     1      -1.568   5.581  -0.972  0.00  0.00    +0.000 OA
ATOM      3  N   UNL     1      -2.459   3.823   0.046  0.00  0.00    +0.000 N 
ATOM      4  H   UNL     1      -3.300   3.365   0.425  0.00  0.00    +0.000 HD
ENDROOT
BRANCH   3   5
ATOM      5  C   UNL     1      -1.235   3.140   0.036  0.00  0.00    +0.000 A 
ATOM      6  C   UNL     1      -1.208   1.764  -0.151  0.00  0.00    +0.000 A 
ATOM      7  C   UNL     1      -0.003   1.092  -0.155  0.00  0.00    +0.000 A 
ATOM      8  C   UNL     1       1.183   1.792   0.016  0.00  0.00    +0.000 A 
ATOM      9  C   UNL     1       1.158   3.167   0.198  0.00  0.00    +0.000 A 
ATOM     10  C   UNL     1      -0.048   3.840   0.207  0.00  0.00    +0.000 A 
BRANCH   9  11
ATOM     11  S   UNL     1       2.664   4.054   0.416  0.00  0.00    +0.000 S 
ATOM     12  O   UNL     1       3.539   3.629  -0.620  0.00  0.00    +0.000 OA
ATOM     13  O   UNL     1       2.309   5.418   0.601  0.00  0.00    +0.000 OA
BRANCH  11  14
ATOM     14  N   UNL     1       3.332   3.542   1.841  0.00  0.00    +0.000 NA
ATOM     15  C   UNL     1       4.255   2.404   1.850  0.00  0.00    +0.000 C 
ATOM     16  C   UNL     1       3.001   4.226   3.094  0.00  0.00    +0.000 C 
ENDBRANCH  11  14
ENDBRANCH   9  11
BRANCH   8  17
ATOM     17  O   UNL     1       2.371   1.130   0.006  0.00  0.00    +0.000 OA
ATOM     18  C   UNL     1       2.323  -0.285  -0.186  0.00  0.00    +0.000 C 
ENDBRANCH   8  17
ENDBRANCH   3   5
BRANCH   1  19
ATOM     19  C   UNL     1      -3.820   5.855  -0.320  0.00  0.00    +0.000 C 
BRANCH  19  20
ATOM     20  S   UNL     1      -3.605   7.497  -1.061  0.00  0.00    +0.000 S 
BRANCH  20  25
ATOM     21  N   UNL     1      -8.394  10.750  -0.762  0.00  0.00    +0.000 N 
ATOM     22  C   UNL     1      -7.380   9.800  -0.720  0.00  0.00    +0.000 A 
ATOM     23  N   UNL     1      -7.397   8.581  -0.217  0.00  0.00    +0.000 NA
ATOM     24  N   UNL     1      -6.268   7.798  -0.281  0.00  0.00    +0.000 NA
ATOM     25  C   UNL     1      -5.173   8.271  -0.845  0.00  0.00    +0.000 A 
ATOM     26  S   UNL     1      -5.703   9.908  -1.325  0.00  0.00    +0.000 S 
ATOM     27  H   UNL     1      -8.222  11.668  -1.196  0.00  0.00    +0.000 HD
BRANCH  21  29
ATOM     28  C   UNL     1     -10.634  11.649  -0.368  0.00  0.00    +0.000 C 
ATOM     29  C   UNL     1      -9.708  10.444  -0.192  0.00  0.00    +0.000 C 
ENDBRANCH  21  29
ENDBRANCH  20  25
ENDBRANCH  19  20
ENDBRANCH   1  19
TORSDOF 8
ENDMDL
MODEL      659
REMARK  Name = ZINC30688422
REMARK  12 active torsions:
REMARK  status: ('A' for Active; 'I' for Inactive)
REMARK    1  A    between atoms: C_1  and  C_2
REMARK    2  A    between atoms: C_2  and  O_3
REMARK    3  A    between atoms: O_3  and  C_4
REMARK    4  A    between atoms: C_4  and  C_6
REMARK    5  A    between atoms: C_6  and  C_7
REMARK    6  A    between atoms: C_7  and  C_8
REMARK    7  A    between atoms: C_8  and  N_9
REMARK    8  A    between atoms: C_10  and  C_12
REMARK    9  A    between atoms: N_15  and  S_18
REMARK   10  A    between atoms: S_18  and  C_21
REMARK   11  A    between atoms: C_23  and  C_27
REMARK   12  A    between atoms: N_24  and  C_26
REMARK                            x       y       z     vdW  Elec       q    Type
REMARK                         _______ _______ _______ _____ _____    ______ ____
ROOT
ATOM      1  C   UNL     1      -3.360   2.635  -2.700  0.00  0.00    +0.000 C 
ATOM      2  C   UNL     1      -2.288   3.541  -2.090  0.00  0.00    +0.000 C 
ATOM      3  C   UNL     1      -0.960   2.781  -2.022  0.00  0.00    +0.000 C 
ATOM      4  N   UNL     1      -1.172   1.523  -1.294  0.00  0.00    +0.000 NA
ATOM      5  C   UNL     1      -2.236   0.616  -1.746  0.00  0.00    +0.000 C 
ATOM      6  C   UNL     1      -3.553   1.403  -1.814  0.00  0.00    +0.000 C 
ENDROOT
BRANCH   1   8
ATOM      7  N   UNL     1      -5.751   2.789  -3.312  0.00  0.00    +0.000 N 
ATOM      8  C   UNL     1      -4.659   3.391  -2.800  0.00  0.00    +0.000 C 
ATOM      9  O   UNL     1      -4.723   4.541  -2.421  0.00  0.00    +0.000 OA
ATOM     10  H   UNL     1      -5.698   1.812  -3.634  0.00  0.00    +0.000 HD
BRANCH   7  11
ATOM     11  C   UNL     1      -7.015   3.524  -3.409  0.00  0.00    +0.000 C 
BRANCH  11  12
ATOM     12  C   UNL     1      -8.086   2.618  -4.019  0.00  0.00    +0.000 C 
BRANCH  12  13
ATOM     13  C   UNL     1      -9.406   3.386  -4.121  0.00  0.00    +0.000 C 
BRANCH  13  14
ATOM     14  C   UNL     1     -10.461   2.494  -4.722  0.00  0.00    +0.000 C 
ATOM     15  O   UNL     1     -10.186   1.360  -5.037  0.00  0.00    +0.000 OA
BRANCH  14  16
ATOM     16  O   UNL     1     -11.707   2.958  -4.908  0.00  0.00    +0.000 OA
BRANCH  16  18
ATOM     17  C   UNL     1     -14.024   2.745  -5.625  0.00  0.00    +0.000 C 
ATOM     18  C   UNL     1     -12.671   2.043  -5.492  0.00  0.00    +0.000 C 
ENDBRANCH  16  18
ENDBRANCH  14  16
ENDBRANCH  13  14
ENDBRANCH  12  13
ENDBRANCH  11  12
ENDBRANCH   7  11
ENDBRANCH   1   8
BRANCH   4  19
ATOM     19  S   UNL     1      -0.226   1.131   0.008  0.00  0.00    +0.000 S 
ATOM     20  O   UNL     1      -0.269  -0.284   0.129  0.00  0.00    +0.000 OA
ATOM     21  O   UNL     1       0.992   1.846  -0.146  0.00  0.00    +0.000 OA
BRANCH  19  22
ATOM     22  C   UNL     1      -1.016   1.784   1.441  0.00  0.00    +0.000 A 
ATOM     23  C   UNL     1      -1.957   1.121   2.236  0.00  0.00    +0.000 A 
ATOM     24  C   UNL     1      -2.315   1.988   3.247  0.00  0.00    +0.000 A 
ATOM     25  N   UNL     1      -1.603   3.152   3.066  0.00  0.00    +0.000 N 
ATOM     26  C   UNL     1      -0.816   3.013   1.972  0.00  0.00    +0.000 A 
ATOM     27  C   UNL     1      -1.680   4.341   3.919  0.00  0.00    +0.000 C 
BRANCH  24  28
ATOM     28  C   UNL     1      -3.279   1.719   4.319  0.00  0.00    +0.000 C 
ATOM     29  O   UNL     1      -3.433   2.527   5.216  0.00  0.00    +0.000 OA
ATOM     30  N   UNL     1      -3.994   0.576   4.311  0.00  0.00    +0.000 N 
ATOM     31  H   UNL     1      -3.863  -0.108   3.553  0.00  0.00    +0.000 HD
ATOM     32  H   UNL     1      -4.670   0.387   5.064  0.00  0.00    +0.000 HD
ENDBRANCH  24  28
ENDBRANCH  19  22
ENDBRANCH   4  19
TORSDOF 10
ENDMDL
MODEL      660
REMARK  Name = ZINC15910386
REMARK  12 active torsions:
REMARK  status: ('A' for Active; 'I' for Inactive)
REMARK    1  A    between atoms: C_1  and  C_2
REMARK    2  A    between atoms: C_5  and  S_20
REMARK    3  A    between atoms: C_7  and  C_8
REMARK    4  A    between atoms: N_10  and  N_11
REMARK    5  A    between atoms: N_11  and  C_12
REMARK    6  A    between atoms: C_12  and  N_14
REMARK    7  A    between atoms: N_14  and  C_15
REMARK    8  A    between atoms: C_15  and  C_16
REMARK    9  A    between atoms: C_16  and  C_17
REMARK   10  A    between atoms: C_17  and  O_18
REMARK   11  A    between atoms: O_18  and  C_19
REMARK   12  A    between atoms: S_20  and  N_23
REMARK                            x       y       z     vdW  Elec       q    Type
REMARK                         _______ _______ _______ _____ _____    ______ ____
ROOT
ATOM      1  C   UNL     1      -3.133   3.237   4.854  0.00  0.00    +0.000 C 
ATOM      2  C   UNL     1      -2.355   2.743   3.663  0.00  0.00    +0.000 A 
ATOM      3  C   UNL     1      -1.590   3.622   2.924  0.00  0.00    +0.000 A 
ATOM      4  C   UNL     1      -0.871   3.169   1.832  0.00  0.00    +0.000 A 
ATOM      5  C   UNL     1      -0.921   1.835   1.467  0.00  0.00    +0.000 A 
ATOM      6  C   UNL     1      -1.682   0.946   2.197  0.00  0.00    +0.000 A 
ATOM      7  C   UNL     1      -2.406   1.396   3.303  0.00  0.00    +0.000 A 
ENDROOT
BRANCH   7   8
ATOM      8  C   UNL     1      -3.224   0.448   4.090  0.00  0.00    +0.000 C 
ATOM      9  O   UNL     1      -3.762   0.816   5.117  0.00  0.00    +0.000 OA
ATOM     10  N   UNL     1      -3.374  -0.823   3.670  0.00  0.00    +0.000 N 
ATOM     11  H   UNL     1      -2.918  -1.135   2.800  0.00  0.00    +0.000 HD
BRANCH  10  12
ATOM     12  N   UNL     1      -4.149  -1.721   4.415  0.00  0.00    +0.000 N 
ATOM     13  H   UNL     1      -4.604  -1.409   5.285  0.00  0.00    +0.000 HD
BRANCH  12  14
ATOM     14  C   UNL     1      -4.299  -2.993   3.995  0.00  0.00    +0.000 C 
ATOM     15  S   UNL     1      -5.246  -4.090   4.906  0.00  0.00    +0.000 S 
BRANCH  14  16
ATOM     16  N   UNL     1      -3.703  -3.401   2.857  0.00  0.00    +0.000 N 
ATOM     17  H   UNL     1      -3.133  -2.741   2.309  0.00  0.00    +0.000 HD
BRANCH  16  18
ATOM     18  C   UNL     1      -3.866  -4.783   2.400  0.00  0.00    +0.000 C 
BRANCH  18  19
ATOM     19  C   UNL     1      -3.094  -4.983   1.094  0.00  0.00    +0.000 C 
BRANCH  19  20
ATOM     20  C   UNL     1      -3.264  -6.426   0.617  0.00  0.00    +0.000 C 
BRANCH  20  21
ATOM     21  O   UNL     1      -2.542  -6.613  -0.602  0.00  0.00    +0.000 OA
ATOM     22  C   UNL     1      -2.636  -7.935  -1.137  0.00  0.00    +0.000 C 
ENDBRANCH  20  21
ENDBRANCH  19  20
ENDBRANCH  18  19
ENDBRANCH  16  18
ENDBRANCH  14  16
ENDBRANCH  12  14
ENDBRANCH  10  12
ENDBRANCH   7   8
BRANCH   5  23
ATOM     23  S   UNL     1      -0.007   1.270   0.071  0.00  0.00    +0.000 S 
ATOM     24  O   UNL     1       0.216  -0.120   0.268  0.00  0.00    +0.000 OA
ATOM     25  O   UNL     1       1.057   2.193  -0.118  0.00  0.00    +0.000 OA
BRANCH  23  26
ATOM     26  N   UNL     1      -0.995   1.409  -1.250  0.00  0.00    +0.000 NA
ATOM     27  C   UNL     1      -1.868   0.299  -1.663  0.00  0.00    +0.000 C 
ATOM     28  C   UNL     1      -3.291   0.851  -1.847  0.00  0.00    +0.000 C 
ATOM     29  O   UNL     1      -3.245   1.982  -2.722  0.00  0.00    +0.000 OA
ATOM     30  C   UNL     1      -2.481   3.080  -2.219  0.00  0.00    +0.000 C 
ATOM     31  C   UNL     1      -1.021   2.644  -2.050  0.00  0.00    +0.000 C 
ENDBRANCH  23  26
ENDBRANCH   5  23
TORSDOF 10
ENDMDL
MODEL      661
REMARK  Name = ZINC02428102
REMARK  10 active torsions:
REMARK  status: ('A' for Active; 'I' for Inactive)
REMARK    1  A    between atoms: C_1  and  O_2
REMARK    2  A    between atoms: O_2  and  C_3
REMARK    3  A    between atoms: C_9  and  N_16
REMARK    4  A    between atoms: C_10  and  C_12
REMARK    5  A    between atoms: C_12  and  O_14
REMARK    6  A    between atoms: O_14  and  C_15
REMARK    7  A    between atoms: C_17  and  C_19
REMARK    8  A    between atoms: C_19  and  C_20
REMARK    9  A    between atoms: C_20  and  N_29
REMARK   10  A    between atoms: C_23  and  C_26
REMARK                            x       y       z     vdW  Elec       q    Type
REMARK                         _______ _______ _______ _____ _____    ______ ____
ROOT
ATOM      1  N   UNL     1      -1.141   3.006   3.935  0.00  0.00    +0.000 N 
ATOM      2  C   UNL     1      -1.044   3.888   4.949  0.00  0.00    +0.000 C 
ATOM      3  O   UNL     1      -1.996   4.085   5.675  0.00  0.00    +0.000 OA
ATOM      4  H   UNL     1      -0.315   2.792   3.358  0.00  0.00    +0.000 HD
ENDROOT
BRANCH   1  11
ATOM      5  C   UNL     1      -4.139   4.283   4.058  0.00  0.00    +0.000 A 
ATOM      6  C   UNL     1      -5.494   4.553   4.035  0.00  0.00    +0.000 A 
ATOM      7  C   UNL     1      -6.399   3.563   3.684  0.00  0.00    +0.000 A 
ATOM      8  C   UNL     1      -5.967   2.294   3.364  0.00  0.00    +0.000 A 
ATOM      9  C   UNL     1      -4.608   1.993   3.385  0.00  0.00    +0.000 A 
ATOM     10  C   UNL     1      -3.684   2.995   3.735  0.00  0.00    +0.000 A 
ATOM     11  C   UNL     1      -2.356   2.384   3.668  0.00  0.00    +0.000 A 
ATOM     12  C   UNL     1      -2.545   1.071   3.288  0.00  0.00    +0.000 A 
ATOM     13  N   UNL     1      -3.903   0.842   3.119  0.00  0.00    +0.000 N 
ATOM     14  H   UNL     1      -4.322  -0.056   2.837  0.00  0.00    +0.000 HD
BRANCH  12  15
ATOM     15  C   UNL     1      -1.518   0.112   3.101  0.00  0.00    +0.000 C 
ATOM     16  O   UNL     1      -0.351   0.449   3.172  0.00  0.00    +0.000 OA
BRANCH  15  17
ATOM     17  O   UNL     1      -1.835  -1.175   2.844  0.00  0.00    +0.000 OA
ATOM     18  C   UNL     1      -0.750  -2.087   2.666  0.00  0.00    +0.000 C 
ENDBRANCH  15  17
ENDBRANCH  12  15
BRANCH   5  20
ATOM     19  C   UNL     1      -3.792   6.540   4.713  0.00  0.00    +0.000 C 
ATOM     20  O   UNL     1      -3.254   5.255   4.397  0.00  0.00    +0.000 OA
ENDBRANCH   5  20
ENDBRANCH   1  11
BRANCH   2  21
ATOM     21  C   UNL     1       0.247   4.630   5.182  0.00  0.00    +0.000 C 
BRANCH  21  22
ATOM     22  C   UNL     1       0.090   5.562   6.385  0.00  0.00    +0.000 C 
BRANCH  22  28
ATOM     23  C   UNL     1       1.887   6.812   5.351  0.00  0.00    +0.000 C 
ATOM     24  C   UNL     1       3.264   7.430   5.602  0.00  0.00    +0.000 C 
ATOM     25  C   UNL     1       3.134   8.555   6.633  0.00  0.00    +0.000 C 
ATOM     26  C   UNL     1       2.526   7.990   7.919  0.00  0.00    +0.000 C 
ATOM     27  C   UNL     1       1.170   7.355   7.601  0.00  0.00    +0.000 C 
ATOM     28  N   UNL     1       1.368   6.265   6.623  0.00  0.00    +0.000 N 
ATOM     29  H   UNL     1       2.053   5.596   7.003  0.00  0.00    +0.000 HD
BRANCH  25  30
ATOM     30  C   UNL     1       4.496   9.128   6.929  0.00  0.00    +0.000 C 
ATOM     31  O   UNL     1       4.938   9.088   8.057  0.00  0.00    +0.000 OA
ATOM     32  N   UNL     1       5.223   9.684   5.939  0.00  0.00    +0.000 N 
ATOM     33  H   UNL     1       4.847   9.717   4.981  0.00  0.00    +0.000 HD
ATOM     34  H   UNL     1       6.154  10.075   6.142  0.00  0.00    +0.000 HD
ENDBRANCH  25  30
ENDBRANCH  22  28
ENDBRANCH  21  22
ENDBRANCH   2  21
TORSDOF 8
ENDMDL
MODEL      662
REMARK  Name = ZINC08469815
REMARK  10 active torsions:
REMARK  status: ('A' for Active; 'I' for Inactive)
REMARK    1  A    between atoms: C_1  and  O_2
REMARK    2  A    between atoms: O_2  and  C_3
REMARK    3  A    between atoms: C_5  and  C_12
REMARK    4  A    between atoms: C_8  and  O_9
REMARK    5  A    between atoms: O_9  and  C_10
REMARK    6  A    between atoms: C_12  and  N_24
REMARK    7  A    between atoms: C_13  and  C_14
REMARK    8  A    between atoms: C_13  and  N_24
REMARK    9  A    between atoms: C_14  and  N_15
REMARK   10  A    between atoms: C_16  and  C_18
REMARK                            x       y       z     vdW  Elec       q    Type
REMARK                         _______ _______ _______ _____ _____    ______ ____
ROOT
ATOM      1  N   UNL     1      -0.820   6.336  -1.492  0.00  0.00    +0.000 N 
ATOM      2  H   UNL     1      -1.114   5.455  -1.938  0.00  0.00    +0.000 HD
ATOM      3  H   UNL     1      -1.636   6.774  -1.041  0.00  0.00    +0.000 HD
ENDROOT
BRANCH   1   4
ATOM      4  C   UNL     1       0.208   6.050  -0.474  0.00  0.00    +0.000 C 
BRANCH   4   7
ATOM      5  C   UNL     1      -0.787   2.893   1.346  0.00  0.00    +0.000 A 
ATOM      6  C   UNL     1      -0.259   3.751   0.395  0.00  0.00    +0.000 A 
ATOM      7  C   UNL     1      -0.367   5.119   0.561  0.00  0.00    +0.000 A 
ATOM      8  C   UNL     1      -1.002   5.635   1.676  0.00  0.00    +0.000 A 
ATOM      9  C   UNL     1      -1.532   4.784   2.629  0.00  0.00    +0.000 A 
ATOM     10  C   UNL     1      -1.431   3.411   2.465  0.00  0.00    +0.000 A 
ATOM     11 BR   UNL     1      -2.399   5.494   4.152  0.00  0.00    +0.000 Br
BRANCH   5  13
ATOM     12  C   UNL     1      -0.013   1.086   0.008  0.00  0.00    +0.000 C 
ATOM     13  O   UNL     1      -0.682   1.547   1.184  0.00  0.00    +0.000 OA
ENDBRANCH   5  13
BRANCH  10  14
ATOM     14  O   UNL     1      -1.956   2.573   3.399  0.00  0.00    +0.000 OA
ATOM     15  C   UNL     1      -1.101   2.184   4.476  0.00  0.00    +0.000 C 
ENDBRANCH  10  14
ENDBRANCH   4   7
ENDBRANCH   1   4
BRANCH   1  16
ATOM     16  C   UNL     1      -0.283   7.247  -2.521  0.00  0.00    +0.000 C 
BRANCH  16  17
ATOM     17  C   UNL     1      -1.370   7.525  -3.561  0.00  0.00    +0.000 C 
BRANCH  17  18
ATOM     18  N   UNL     1      -0.845   8.430  -4.587  0.00  0.00    +0.000 N 
ATOM     19  C   UNL     1      -1.631   8.816  -5.611  0.00  0.00    +0.000 C 
ATOM     20  O   UNL     1      -2.775   8.414  -5.684  0.00  0.00    +0.000 OA
ATOM     21  H   UNL     1       0.125   8.770  -4.525  0.00  0.00    +0.000 HD
BRANCH  19  22
ATOM     22  C   UNL     1      -1.099   9.730  -6.648  0.00  0.00    +0.000 A 
ATOM     23  C   UNL     1      -1.784  10.273  -7.844  0.00  0.00    +0.000 A 
ATOM     24  N   UNL     1      -0.851  11.015  -8.394  0.00  0.00    +0.000 NA
ATOM     25  O   UNL     1       0.155  10.958  -7.727  0.00  0.00    +0.000 OA
ATOM     26  N   UNL     1       0.098  10.269  -6.736  0.00  0.00    +0.000 NA
ATOM     27  N   UNL     1      -3.085  10.053  -8.275  0.00  0.00    +0.000 N 
ATOM     28  H   UNL     1      -3.620   9.424  -7.659  0.00  0.00    +0.000 HD
ATOM     29  H   UNL     1      -3.500  10.465  -9.122  0.00  0.00    +0.000 HD
ENDBRANCH  19  22
ENDBRANCH  17  18
ENDBRANCH  16  17
ENDBRANCH   1  16
TORSDOF 8
ENDMDL
MODEL      663
REMARK  Name = ZINC22754895
REMARK  12 active torsions:
REMARK  status: ('A' for Active; 'I' for Inactive)
REMARK    1  A    between atoms: C_1  and  C_2
REMARK    2  A    between atoms: C_2  and  C_3
REMARK    3  A    between atoms: C_2  and  C_4
REMARK    4  A    between atoms: C_4  and  C_5
REMARK    5  A    between atoms: C_4  and  N_26
REMARK    6  A    between atoms: C_5  and  N_6
REMARK    7  A    between atoms: C_7  and  C_9
REMARK    8  A    between atoms: C_12  and  S_15
REMARK    9  A    between atoms: S_15  and  N_18
REMARK   10  A    between atoms: N_18  and  C_19
REMARK   11  A    between atoms: N_26  and  C_27
REMARK   12  A    between atoms: N_26  and  C_28
REMARK                            x       y       z     vdW  Elec       q    Type
REMARK                         _______ _______ _______ _____ _____    ______ ____
ROOT
ATOM      1  C   UNL     1       0.699  -3.581   4.710  0.00  0.00    +0.000 A 
ATOM      2  C   UNL     1      -0.292  -4.148   3.907  0.00  0.00    +0.000 A 
ATOM      3  C   UNL     1       0.032  -4.631   2.656  0.00  0.00    +0.000 A 
ATOM      4  C   UNL     1       1.335  -4.555   2.197  0.00  0.00    +0.000 A 
ATOM      5  C   UNL     1       2.323  -3.999   2.991  0.00  0.00    +0.000 A 
ATOM      6  C   UNL     1       2.011  -3.507   4.242  0.00  0.00    +0.000 A 
ENDROOT
BRANCH   1   8
ATOM      7  N   UNL     1       1.318  -2.515   6.825  0.00  0.00    +0.000 N 
ATOM      8  C   UNL     1       0.359  -3.061   6.052  0.00  0.00    +0.000 C 
ATOM      9  O   UNL     1      -0.785  -3.126   6.457  0.00  0.00    +0.000 OA
ATOM     10  H   UNL     1       2.288  -2.459   6.482  0.00  0.00    +0.000 HD
BRANCH   7  11
ATOM     11  C   UNL     1       0.982  -1.999   8.155  0.00  0.00    +0.000 C 
BRANCH  11  12
ATOM     12  C   UNL     1       2.241  -1.438   8.818  0.00  0.00    +0.000 C 
BRANCH  12  13
ATOM     13  N   UNL     1       2.851  -0.433   7.937  0.00  0.00    +0.000 N 
ATOM     14  C   UNL     1       2.181   0.867   8.078  0.00  0.00    +0.000 C 
ATOM     15  C   UNL     1       4.293  -0.312   8.195  0.00  0.00    +0.000 C 
ATOM     16  H   UNL     1       2.729  -0.748   6.965  0.00  0.00    +0.000 HD
ENDBRANCH  12  13
BRANCH  12  18
ATOM     17  C   UNL     1       1.103  -1.794  11.014  0.00  0.00    +0.000 C 
ATOM     18  C   UNL     1       1.869  -0.788  10.152  0.00  0.00    +0.000 C 
ATOM     19  C   UNL     1       3.142  -0.356  10.882  0.00  0.00    +0.000 C 
ENDBRANCH  12  18
ENDBRANCH  11  12
ENDBRANCH   7  11
ENDBRANCH   1   8
BRANCH   4  20
ATOM     20  S   UNL     1       1.739  -5.174   0.598  0.00  0.00    +0.000 S 
ATOM     21  O   UNL     1       0.750  -6.142   0.275  0.00  0.00    +0.000 OA
ATOM     22  O   UNL     1       3.127  -5.481   0.621  0.00  0.00    +0.000 OA
BRANCH  20  23
ATOM     23  N   UNL     1       1.548  -3.927  -0.474  0.00  0.00    +0.000 NA
BRANCH  23  24
ATOM     24  C   UNL     1       2.308  -2.761  -0.333  0.00  0.00    +0.000 A 
ATOM     25  C   UNL     1       3.621  -2.836   0.111  0.00  0.00    +0.000 A 
ATOM     26  C   UNL     1       4.370  -1.683   0.249  0.00  0.00    +0.000 A 
ATOM     27  C   UNL     1       3.813  -0.455  -0.055  0.00  0.00    +0.000 A 
ATOM     28  C   UNL     1       2.506  -0.374  -0.497  0.00  0.00    +0.000 A 
ATOM     29  C   UNL     1       1.750  -1.524  -0.637  0.00  0.00    +0.000 A 
ATOM     30  F   UNL     1       0.474  -1.446  -1.075  0.00  0.00    +0.000 F 
ENDBRANCH  23  24
ENDBRANCH  20  23
ENDBRANCH   4  20
TORSDOF 8
ENDMDL
MODEL      664
REMARK  Name = ZINC20506750
REMARK  8 active torsions:
REMARK  status: ('A' for Active; 'I' for Inactive)
REMARK    1  A    between atoms: N_3  and  C_16
REMARK    2  A    between atoms: N_6  and  C_7
REMARK    3  A    between atoms: C_7  and  C_8
REMARK    4  A    between atoms: C_8  and  S_9
REMARK    5  A    between atoms: S_9  and  C_10
REMARK    6  A    between atoms: C_16  and  C_17
REMARK    7  A    between atoms: C_17  and  S_18
REMARK    8  A    between atoms: S_18  and  C_19
REMARK                            x       y       z     vdW  Elec       q    Type
REMARK                         _______ _______ _______ _____ _____    ______ ____
ROOT
ATOM      1  C   UNL     1      -0.105  -0.371   2.560  0.00  0.00    +0.000 C 
ATOM      2  C   UNL     1       0.712  -0.844   3.765  0.00  0.00    +0.000 C 
ATOM      3  N   UNL     1       0.200  -0.201   4.984  0.00  0.00    +0.000 NA
ATOM      4  C   UNL     1       0.286   1.262   4.880  0.00  0.00    +0.000 C 
ATOM      5  C   UNL     1      -0.531   1.735   3.675  0.00  0.00    +0.000 C 
ATOM      6  N   UNL     1      -0.018   1.093   2.457  0.00  0.00    +0.000 NA
ENDROOT
BRANCH   6   7
ATOM      7  C   UNL     1      -0.729   1.579   1.267  0.00  0.00    +0.000 C 
BRANCH   7   8
ATOM      8  C   UNL     1      -0.013   1.086   0.008  0.00  0.00    +0.000 C 
BRANCH   8   9
ATOM      9  S   UNL     1      -0.890   1.687  -1.462  0.00  0.00    +0.000 S 
BRANCH   9  10
ATOM     10  C   UNL     1       0.045   1.043  -2.809  0.00  0.00    +0.000 A 
ATOM     11  N   UNL     1       1.132   0.296  -2.791  0.00  0.00    +0.000 NA
ATOM     12  N   UNL     1       1.708  -0.102  -3.975  0.00  0.00    +0.000 NA
ATOM     13  C   UNL     1       1.172   0.265  -5.122  0.00  0.00    +0.000 A 
ATOM     14  S   UNL     1      -0.230   1.221  -4.565  0.00  0.00    +0.000 S 
ATOM     15  N   UNL     1       1.584  -0.021  -6.419  0.00  0.00    +0.000 N 
ATOM     16  H   UNL     1       2.432  -0.604  -6.463  0.00  0.00    +0.000 HD
ATOM     17  H   UNL     1       1.105   0.307  -7.269  0.00  0.00    +0.000 HD
ENDBRANCH   9  10
ENDBRANCH   8   9
ENDBRANCH   7   8
ENDBRANCH   6   7
BRANCH   3  18
ATOM     18  C   UNL     1       0.910  -0.688   6.174  0.00  0.00    +0.000 C 
BRANCH  18  19
ATOM     19  C   UNL     1       0.594  -2.170   6.386  0.00  0.00    +0.000 C 
BRANCH  19  20
ATOM     20  S   UNL     1       1.471  -2.771   7.856  0.00  0.00    +0.000 S 
BRANCH  20  21
ATOM     21  C   UNL     1       1.009  -4.468   7.964  0.00  0.00    +0.000 A 
ATOM     22  N   UNL     1       0.215  -5.169   7.178  0.00  0.00    +0.000 NA
ATOM     23  N   UNL     1      -0.012  -6.499   7.447  0.00  0.00    +0.000 NA
ATOM     24  C   UNL     1       0.565  -7.066   8.489  0.00  0.00    +0.000 A 
ATOM     25  S   UNL     1       1.497  -5.699   9.162  0.00  0.00    +0.000 S 
ATOM     26  N   UNL     1       0.476  -8.378   8.939  0.00  0.00    +0.000 N 
ATOM     27  H   UNL     1      -0.134  -8.973   8.360  0.00  0.00    +0.000 HD
ATOM     28  H   UNL     1       0.963  -8.745   9.769  0.00  0.00    +0.000 HD
ENDBRANCH  20  21
ENDBRANCH  19  20
ENDBRANCH  18  19
ENDBRANCH   3  18
TORSDOF 8
ENDMDL
MODEL      665
REMARK  Name = ZINC04774635
REMARK  13 active torsions:
REMARK  status: ('A' for Active; 'I' for Inactive)
REMARK    1  A    between atoms: C_7  and  C_11
REMARK    2  A    between atoms: C_12  and  C_13
REMARK    3  A    between atoms: C_16  and  N_19
REMARK    4  A    between atoms: C_20  and  C_21
REMARK    5  A    between atoms: C_21  and  C_22
REMARK    6  A    between atoms: C_21  and  O_30
REMARK    7  A    between atoms: C_22  and  C_23
REMARK    8  A    between atoms: C_22  and  O_29
REMARK    9  A    between atoms: C_23  and  C_24
REMARK   10  A    between atoms: C_23  and  O_28
REMARK   11  A    between atoms: C_24  and  C_25
REMARK   12  A    between atoms: C_24  and  O_27
REMARK   13  A    between atoms: C_25  and  O_26
REMARK                            x       y       z     vdW  Elec       q    Type
REMARK                         _______ _______ _______ _____ _____    ______ ____
ROOT
ATOM      1  C   UNL     1      -0.992   1.415  -0.119  0.00  0.00    +0.000 A 
ATOM      2  C   UNL     1      -2.271   0.863  -0.262  0.00  0.00    +0.000 A 
ATOM      3  C   UNL     1      -2.507  -0.423   0.131  0.00  0.00    +0.000 A 
ATOM      4  C   UNL     1      -1.476  -1.185   0.686  0.00  0.00    +0.000 A 
ATOM      5  C   UNL     1      -0.201  -0.634   0.836  0.00  0.00    +0.000 A 
ATOM      6  C   UNL     1       0.040   0.651   0.438  0.00  0.00    +0.000 A 
ENDROOT
BRANCH   1   8
ATOM      7  C   UNL     1      -1.308   3.273  -1.670  0.00  0.00    +0.000 C 
ATOM      8  C   UNL     1      -0.735   2.798  -0.547  0.00  0.00    +0.000 C 
BRANCH   7  15
ATOM      9  C   UNL     1      -5.073   4.339  -3.522  0.00  0.00    +0.000 A 
ATOM     10  C   UNL     1      -5.725   3.433  -4.355  0.00  0.00    +0.000 A 
ATOM     11  C   UNL     1      -5.198   2.203  -4.605  0.00  0.00    +0.000 A 
ATOM     12  C   UNL     1      -3.976   1.835  -4.014  0.00  0.00    +0.000 A 
ATOM     13  C   UNL     1      -3.321   2.758  -3.163  0.00  0.00    +0.000 A 
ATOM     14  C   UNL     1      -3.887   4.015  -2.931  0.00  0.00    +0.000 A 
ATOM     15  C   UNL     1      -2.046   2.365  -2.558  0.00  0.00    +0.000 A 
ATOM     16  C   UNL     1      -1.565   1.090  -2.858  0.00  0.00    +0.000 A 
ATOM     17  C   UNL     1      -2.295   0.266  -3.702  0.00  0.00    +0.000 A 
ATOM     18  N   UNL     1      -3.433   0.635  -4.239  0.00  0.00    +0.000 NA
ENDBRANCH   7  15
ENDBRANCH   1   8
BRANCH   4  19
ATOM     19  N   UNL     1      -1.716  -2.474   1.086  0.00  0.00    +0.000 NA
ATOM     20  C   UNL     1      -2.639  -2.720   1.955  0.00  0.00    +0.000 C 
BRANCH  20  21
ATOM     21  C   UNL     1      -3.381  -1.583   2.608  0.00  0.00    +0.000 C 
BRANCH  21  22
ATOM     22  O   UNL     1      -4.782  -1.728   2.367  0.00  0.00    +0.000 OA
ATOM     23  H   UNL     1      -5.096  -2.587   2.747  0.00  0.00    +0.000 HD
ENDBRANCH  21  22
BRANCH  21  24
ATOM     24  C   UNL     1      -3.118  -1.600   4.115  0.00  0.00    +0.000 C 
BRANCH  24  25
ATOM     25  O   UNL     1      -3.454  -2.885   4.643  0.00  0.00    +0.000 OA
ATOM     26  H   UNL     1      -2.900  -3.578   4.204  0.00  0.00    +0.000 HD
ENDBRANCH  24  25
BRANCH  24  27
ATOM     27  C   UNL     1      -3.975  -0.530   4.795  0.00  0.00    +0.000 C 
BRANCH  27  28
ATOM     28  O   UNL     1      -3.639   0.755   4.267  0.00  0.00    +0.000 OA
ATOM     29  H   UNL     1      -3.809   0.767   3.292  0.00  0.00    +0.000 HD
ENDBRANCH  27  28
BRANCH  27  30
ATOM     30  C   UNL     1      -3.712  -0.547   6.302  0.00  0.00    +0.000 C 
BRANCH  30  31
ATOM     31  O   UNL     1      -4.048  -1.832   6.829  0.00  0.00    +0.000 OA
ATOM     32  H   UNL     1      -3.493  -2.525   6.390  0.00  0.00    +0.000 HD
ENDBRANCH  30  31
BRANCH  30  33
ATOM     33  C   UNL     1      -4.568   0.523   6.981  0.00  0.00    +0.000 C 
BRANCH  33  34
ATOM     34  O   UNL     1      -4.238   0.586   8.370  0.00  0.00    +0.000 OA
ATOM     35  H   UNL     1      -3.281   0.817   8.473  0.00  0.00    +0.000 HD
ENDBRANCH  33  34
ENDBRANCH  30  33
ENDBRANCH  27  30
ENDBRANCH  24  27
ENDBRANCH  21  24
ENDBRANCH  20  21
ENDBRANCH   4  19
TORSDOF 13
ENDMDL
MODEL      666
REMARK  Name = ZINC13207395
REMARK  13 active torsions:
REMARK  status: ('A' for Active; 'I' for Inactive)
REMARK    1  A    between atoms: C_1  and  C_2
REMARK    2  A    between atoms: C_4  and  C_9
REMARK    3  A    between atoms: C_7  and  O_8
REMARK    4  A    between atoms: C_9  and  C_10
REMARK    5  A    between atoms: C_9  and  O_28
REMARK    6  A    between atoms: C_10  and  N_29
REMARK    7  A    between atoms: C_11  and  C_12
REMARK    8  A    between atoms: C_11  and  C_13
REMARK    9  A    between atoms: C_11  and  N_29
REMARK   10  A    between atoms: C_13  and  C_14
REMARK   11  A    between atoms: C_14  and  N_15
REMARK   12  A    between atoms: N_22  and  C_27
REMARK   13  A    between atoms: N_25  and  C_26
REMARK                            x       y       z     vdW  Elec       q    Type
REMARK                         _______ _______ _______ _____ _____    ______ ____
ROOT
ATOM      1  C   UNL     1       6.033   3.138   2.756  0.00  0.00    +0.000 C 
ATOM      2  C   UNL     1       5.328   4.225   3.570  0.00  0.00    +0.000 C 
ENDROOT
BRANCH   1   3
ATOM      3  N   UNL     1       5.452   3.082   1.401  0.00  0.00    +0.000 N 
ATOM      4  H   UNL     1       6.149   2.699   0.747  0.00  0.00    +0.000 HD
ATOM      5  H   UNL     1       5.195   4.034   1.101  0.00  0.00    +0.000 HD
BRANCH   3   6
ATOM      6  C   UNL     1       4.251   2.225   1.394  0.00  0.00    +0.000 C 
BRANCH   6   7
ATOM      7  C   UNL     1       3.671   2.186  -0.021  0.00  0.00    +0.000 C 
BRANCH   7  11
ATOM      8  C   UNL     1      -1.332   2.119   0.020  0.00  0.00    +0.000 C 
ATOM      9  C   UNL     1      -0.017   1.383   0.010  0.00  0.00    +0.000 A 
ATOM     10  C   UNL     1       1.171   2.089   0.002  0.00  0.00    +0.000 A 
ATOM     11  C   UNL     1       2.377   1.414  -0.013  0.00  0.00    +0.000 A 
ATOM     12  C   UNL     1       2.399   0.031  -0.021  0.00  0.00    +0.000 A 
ATOM     13  C   UNL     1       1.214  -0.679  -0.013  0.00  0.00    +0.000 A 
ATOM     14  C   UNL     1       0.002  -0.004   0.002  0.00  0.00    +0.000 A 
BRANCH  14  15
ATOM     15  O   UNL     1      -1.165  -0.701   0.009  0.00  0.00    +0.000 OA
ATOM     16  H   UNL     1      -1.663  -0.371  -0.781  0.00  0.00    +0.000 HD
ENDBRANCH  14  15
ENDBRANCH   7  11
BRANCH   7  17
ATOM     17  O   UNL     1       4.601   1.549  -0.900  0.00  0.00    +0.000 OA
ATOM     18  H   UNL     1       4.227   1.524  -1.816  0.00  0.00    +0.000 HD
ENDBRANCH   7  17
ENDBRANCH   6   7
ENDBRANCH   3   6
ENDBRANCH   1   3
BRANCH   1  19
ATOM     19  C   UNL     1       7.524   3.466   2.650  0.00  0.00    +0.000 C 
BRANCH  19  20
ATOM     20  C   UNL     1       8.249   2.319   1.944  0.00  0.00    +0.000 C 
BRANCH  20  21
ATOM     21  N   UNL     1       9.677   2.633   1.843  0.00  0.00    +0.000 N 
ATOM     22  C   UNL     1      10.301   3.193   0.788  0.00  0.00    +0.000 A 
ATOM     23  N   UNL     1      11.575   3.330   1.052  0.00  0.00    +0.000 NA
ATOM     24  C   UNL     1      11.838   2.860   2.274  0.00  0.00    +0.000 A 
ATOM     25  C   UNL     1      10.638   2.405   2.807  0.00  0.00    +0.000 A 
ATOM     26  C   UNL     1      10.629   1.851   4.105  0.00  0.00    +0.000 A 
ATOM     27  O   UNL     1       9.589   1.446   4.594  0.00  0.00    +0.000 OA
ATOM     28  N   UNL     1      11.784   1.775   4.797  0.00  0.00    +0.000 N 
ATOM     29  C   UNL     1      12.938   2.218   4.269  0.00  0.00    +0.000 A 
ATOM     30  O   UNL     1      13.960   2.133   4.923  0.00  0.00    +0.000 OA
ATOM     31  N   UNL     1      12.991   2.753   3.035  0.00  0.00    +0.000 N 
ATOM     32  C   UNL     1      14.269   3.224   2.496  0.00  0.00    +0.000 C 
ATOM     33  C   UNL     1      11.781   1.200   6.145  0.00  0.00    +0.000 C 
ENDBRANCH  20  21
ENDBRANCH  19  20
ENDBRANCH   1  19
TORSDOF 9
ENDMDL
MODEL      667
REMARK  Name = ZINC06564701
REMARK  8 active torsions:
REMARK  status: ('A' for Active; 'I' for Inactive)
REMARK    1  A    between atoms: C_1  and  C_2
REMARK    2  A    between atoms: C_2  and  O_3
REMARK    3  A    between atoms: O_3  and  C_4
REMARK    4  A    between atoms: C_6  and  C_15
REMARK    5  A    between atoms: C_9  and  O_10
REMARK    6  A    between atoms: O_10  and  C_11
REMARK    7  A    between atoms: C_11  and  C_12
REMARK    8  A    between atoms: C_19  and  C_23
REMARK                            x       y       z     vdW  Elec       q    Type
REMARK                         _______ _______ _______ _____ _____    ______ ____
ROOT
ATOM      1  C   UNL     1      -3.941   6.319  -5.778  0.00  0.00    +0.000 A 
ATOM      2  C   UNL     1      -4.400   6.337  -4.476  0.00  0.00    +0.000 A 
ATOM      3  C   UNL     1      -3.541   5.977  -3.429  0.00  0.00    +0.000 A 
ATOM      4  C   UNL     1      -2.225   5.590  -3.712  0.00  0.00    +0.000 A 
ATOM      5  C   UNL     1      -1.778   5.569  -5.015  0.00  0.00    +0.000 A 
ATOM      6  C   UNL     1      -2.629   5.932  -6.050  0.00  0.00    +0.000 A 
ENDROOT
BRANCH   3   7
ATOM      7  C   UNL     1      -4.020   6.000  -2.042  0.00  0.00    +0.000 C 
ATOM      8  C   UNL     1      -3.699   4.986  -1.196  0.00  0.00    +0.000 C 
ATOM      9  C   UNL     1      -3.064   3.771  -1.519  0.00  0.00    +0.000 C 
ATOM     10  O   UNL     1      -2.729   3.516  -2.658  0.00  0.00    +0.000 OA
ATOM     11  C   UNL     1      -2.821   2.817  -0.402  0.00  0.00    +0.000 C 
ATOM     12  C   UNL     1      -3.310   3.313   0.939  0.00  0.00    +0.000 C 
ATOM     13  N   UNL     1      -3.247   2.720   2.088  0.00  0.00    +0.000 N 
ATOM     14  S   UNL     1      -3.995   4.911   0.556  0.00  0.00    +0.000 S 
ATOM     15  H   UNL     1      -2.799   1.793   2.048  0.00  0.00    +0.000 HD
ATOM     16  H   UNL     1      -3.599   3.110   2.974  0.00  0.00    +0.000 HD
BRANCH  11  17
ATOM     17  C   UNL     1      -3.517   1.519  -0.718  0.00  0.00    +0.000 A 
ATOM     18  N   UNL     1      -2.997   0.328  -0.908  0.00  0.00    +0.000 NA
ATOM     19  C   UNL     1      -3.752  -0.716  -1.179  0.00  0.00    +0.000 A 
ATOM     20  C   UNL     1      -5.095  -0.538  -1.261  0.00  0.00    +0.000 A 
ATOM     21  S   UNL     1      -5.214   1.215  -0.934  0.00  0.00    +0.000 S 
ENDBRANCH  11  17
ENDBRANCH   3   7
BRANCH   6  22
ATOM     22  O   UNL     1      -2.183   5.910  -7.333  0.00  0.00    +0.000 OA
BRANCH  22  23
ATOM     23  C   UNL     1      -0.828   5.504  -7.542  0.00  0.00    +0.000 C 
BRANCH  23  24
ATOM     24  C   UNL     1      -0.514   5.541  -9.015  0.00  0.00    +0.000 C 
ATOM     25  O   UNL     1      -1.366   5.882  -9.808  0.00  0.00    +0.000 OA
ATOM     26  N   UNL     1       0.714   5.196  -9.451  0.00  0.00    +0.000 N 
ATOM     27  H   UNL     1       1.437   4.906  -8.777  0.00  0.00    +0.000 HD
ATOM     28  H   UNL     1       0.928   5.221 -10.458  0.00  0.00    +0.000 HD
ENDBRANCH  23  24
ENDBRANCH  22  23
ENDBRANCH   6  22
BRANCH   1  29
ATOM     29  O   UNL     1      -4.771   6.673  -6.796  0.00  0.00    +0.000 OA
BRANCH  29  31
ATOM     30  C   UNL     1      -6.879   7.419  -7.711  0.00  0.00    +0.000 C 
ATOM     31  C   UNL     1      -6.101   7.058  -6.444  0.00  0.00    +0.000 C 
ENDBRANCH  29  31
ENDBRANCH   1  29
TORSDOF 7
ENDMDL
MODEL      668
REMARK  Name = ZINC06427259
REMARK  12 active torsions:
REMARK  status: ('A' for Active; 'I' for Inactive)
REMARK    1  A    between atoms: C_1  and  C_2
REMARK    2  A    between atoms: C_5  and  N_9
REMARK    3  A    between atoms: C_6  and  C_8
REMARK    4  A    between atoms: C_10  and  C_12
REMARK    5  A    between atoms: C_12  and  S_13
REMARK    6  A    between atoms: S_13  and  C_14
REMARK    7  A    between atoms: C_14  and  C_15
REMARK    8  A    between atoms: N_17  and  N_18
REMARK    9  A    between atoms: C_19  and  C_21
REMARK   10  A    between atoms: C_21  and  N_22
REMARK   11  A    between atoms: C_23  and  C_28
REMARK   12  A    between atoms: C_25  and  C_27
REMARK                            x       y       z     vdW  Elec       q    Type
REMARK                         _______ _______ _______ _____ _____    ______ ____
ROOT
ATOM      1  C   UNL     1       5.383   1.045  -0.078  0.00  0.00    +0.000 C 
ATOM      2  O   UNL     1       5.293  -0.164  -0.076  0.00  0.00    +0.000 OA
ATOM      3  N   UNL     1       6.597   1.631  -0.096  0.00  0.00    +0.000 N 
ATOM      4  H   UNL     1       6.673   2.658  -0.098  0.00  0.00    +0.000 HD
ENDROOT
BRANCH   3   5
ATOM      5  N   UNL     1       7.754   0.842  -0.114  0.00  0.00    +0.000 N 
ATOM      6  C   UNL     1       8.968   1.427  -0.133  0.00  0.00    +0.000 C 
ATOM      7  O   UNL     1       9.059   2.636  -0.135  0.00  0.00    +0.000 OA
ATOM      8  H   UNL     1       7.678  -0.185  -0.113  0.00  0.00    +0.000 HD
BRANCH   6   9
ATOM      9  C   UNL     1      10.214   0.578  -0.152  0.00  0.00    +0.000 C 
BRANCH   9  10
ATOM     10  N   UNL     1      11.395   1.445  -0.170  0.00  0.00    +0.000 N 
ATOM     11  C   UNL     1      12.021   1.910  -1.271  0.00  0.00    +0.000 A 
ATOM     12  C   UNL     1      13.060   2.675  -0.863  0.00  0.00    +0.000 A 
ATOM     13  C   UNL     1      13.075   2.669   0.536  0.00  0.00    +0.000 A 
ATOM     14  N   UNL     1      12.077   1.932   0.952  0.00  0.00    +0.000 NA
ATOM     15  C   UNL     1      14.069   3.387   1.412  0.00  0.00    +0.000 C 
ATOM     16  C   UNL     1      11.631   1.631  -2.700  0.00  0.00    +0.000 C 
ENDBRANCH   9  10
ENDBRANCH   6   9
ENDBRANCH   3   5
BRANCH   1  17
ATOM     17  C   UNL     1       4.137   1.894  -0.059  0.00  0.00    +0.000 C 
BRANCH  17  18
ATOM     18  S   UNL     1       2.675   0.821  -0.036  0.00  0.00    +0.000 S 
BRANCH  18  19
ATOM     19  C   UNL     1       1.280   1.980  -0.015  0.00  0.00    +0.000 C 
BRANCH  19  21
ATOM     20  N   UNL     1      -1.191   1.867   0.018  0.00  0.00    +0.000 N 
ATOM     21  C   UNL     1      -0.014   1.209   0.005  0.00  0.00    +0.000 C 
ATOM     22  O   UNL     1       0.003  -0.004   0.005  0.00  0.00    +0.000 OA
ATOM     23  H   UNL     1      -1.206   2.893   0.103  0.00  0.00    +0.000 HD
BRANCH  20  28
ATOM     24  C   UNL     1      -6.057  -1.018  -0.402  0.00  0.00    +0.000 C 
ATOM     25  C   UNL     1      -4.765  -0.252  -0.291  0.00  0.00    +0.000 A 
ATOM     26  C   UNL     1      -3.597  -0.791  -0.800  0.00  0.00    +0.000 A 
ATOM     27  C   UNL     1      -2.411  -0.091  -0.699  0.00  0.00    +0.000 A 
ATOM     28  C   UNL     1      -2.391   1.155  -0.086  0.00  0.00    +0.000 A 
ATOM     29  C   UNL     1      -3.564   1.691   0.428  0.00  0.00    +0.000 A 
ATOM     30  C   UNL     1      -4.748   0.989   0.320  0.00  0.00    +0.000 A 
ATOM     31  C   UNL     1      -3.546   3.040   1.100  0.00  0.00    +0.000 C 
ENDBRANCH  20  28
ENDBRANCH  19  21
ENDBRANCH  18  19
ENDBRANCH  17  18
ENDBRANCH   1  17
TORSDOF 8
ENDMDL
MODEL      669
REMARK  Name = ZINC29966352
REMARK  9 active torsions:
REMARK  status: ('A' for Active; 'I' for Inactive)
REMARK    1  A    between atoms: C_1  and  N_2
REMARK    2  A    between atoms: C_4  and  S_10
REMARK    3  A    between atoms: C_6  and  C_7
REMARK    4  A    between atoms: S_10  and  N_13
REMARK    5  A    between atoms: N_13  and  C_14
REMARK    6  A    between atoms: C_19  and  C_20
REMARK    7  A    between atoms: C_20  and  N_21
REMARK    8  A    between atoms: N_21  and  C_22
REMARK    9  A    between atoms: N_21  and  C_23
REMARK                            x       y       z     vdW  Elec       q    Type
REMARK                         _______ _______ _______ _____ _____    ______ ____
ROOT
ATOM      1  N   UNL     1       3.564   2.119  -0.025  0.00  0.00    +0.000 N 
ATOM      2  H   UNL     1       3.643   2.966   0.555  0.00  0.00    +0.000 HD
ENDROOT
BRANCH   1   3
ATOM      3  C   UNL     1       2.322   1.503  -0.197  0.00  0.00    +0.000 A 
ATOM      4  C   UNL     1       2.237   0.119  -0.285  0.00  0.00    +0.000 A 
ATOM      5  C   UNL     1       1.007  -0.486  -0.455  0.00  0.00    +0.000 A 
ATOM      6  C   UNL     1      -0.139   0.284  -0.537  0.00  0.00    +0.000 A 
ATOM      7  C   UNL     1      -0.058   1.662  -0.450  0.00  0.00    +0.000 A 
ATOM      8  C   UNL     1       1.169   2.273  -0.280  0.00  0.00    +0.000 A 
BRANCH   8   9
ATOM      9  C   UNL     1       1.257   3.775  -0.186  0.00  0.00    +0.000 C 
BRANCH   9  10
ATOM     10  N   UNL     1       1.673   4.324  -1.483  0.00  0.00    +0.000 N 
ATOM     11  C   UNL     1       0.643   4.098  -2.506  0.00  0.00    +0.000 C 
ATOM     12  H   UNL     1       2.526   3.827  -1.778  0.00  0.00    +0.000 HD
BRANCH  10  13
ATOM     13  C   UNL     1       1.998   5.752  -1.370  0.00  0.00    +0.000 C 
ATOM     14  C   UNL     1       0.736   6.536  -1.007  0.00  0.00    +0.000 C 
ATOM     15  C   UNL     1       1.075   8.023  -0.889  0.00  0.00    +0.000 C 
ATOM     16  C   UNL     1       1.621   8.529  -2.226  0.00  0.00    +0.000 C 
ATOM     17  C   UNL     1       2.884   7.745  -2.590  0.00  0.00    +0.000 C 
ATOM     18  C   UNL     1       2.545   6.258  -2.707  0.00  0.00    +0.000 C 
ENDBRANCH  10  13
ENDBRANCH   9  10
ENDBRANCH   8   9
ENDBRANCH   1   3
BRANCH   1  19
ATOM     19  S   UNL     1       4.910   1.485  -0.752  0.00  0.00    +0.000 S 
ATOM     20  O   UNL     1       5.971   2.399  -0.510  0.00  0.00    +0.000 OA
ATOM     21  O   UNL     1       4.977   0.120  -0.364  0.00  0.00    +0.000 OA
BRANCH  19  25
ATOM     22  C   UNL     1       4.709   2.973  -5.798  0.00  0.00    +0.000 C 
ATOM     23  N   UNL     1       4.550   2.154  -4.594  0.00  0.00    +0.000 N 
ATOM     24  C   UNL     1       4.923   2.509  -3.341  0.00  0.00    +0.000 A 
ATOM     25  C   UNL     1       4.619   1.500  -2.490  0.00  0.00    +0.000 A 
ATOM     26  C   UNL     1       4.037   0.471  -3.236  0.00  0.00    +0.000 A 
ATOM     27  C   UNL     1       3.995   0.895  -4.547  0.00  0.00    +0.000 A 
BRANCH  27  28
ATOM     28  C   UNL     1       3.462   0.139  -5.686  0.00  0.00    +0.000 C 
ATOM     29  O   UNL     1       3.398   0.659  -6.785  0.00  0.00    +0.000 OA
ATOM     30  N   UNL     1       3.045  -1.131  -5.516  0.00  0.00    +0.000 N 
ATOM     31  H   UNL     1       3.099  -1.571  -4.587  0.00  0.00    +0.000 HD
ATOM     32  H   UNL     1       2.671  -1.661  -6.316  0.00  0.00    +0.000 HD
ENDBRANCH  27  28
ENDBRANCH  19  25
ENDBRANCH   1  19
TORSDOF 7
ENDMDL
MODEL      670
REMARK  Name = ZINC27310656
REMARK  10 active torsions:
REMARK  status: ('A' for Active; 'I' for Inactive)
REMARK    1  A    between atoms: C_1  and  C_2
REMARK    2  A    between atoms: C_2  and  C_4
REMARK    3  A    between atoms: C_4  and  N_5
REMARK    4  A    between atoms: N_5  and  C_6
REMARK    5  A    between atoms: C_7  and  C_8
REMARK    6  A    between atoms: C_7  and  N_20
REMARK    7  A    between atoms: C_8  and  C_10
REMARK    8  A    between atoms: C_13  and  C_15
REMARK    9  A    between atoms: C_15  and  N_16
REMARK   10  A    between atoms: C_17  and  C_19
REMARK                            x       y       z     vdW  Elec       q    Type
REMARK                         _______ _______ _______ _____ _____    ______ ____
ROOT
ATOM      1  C   UNL     1       6.119   0.290  -0.055  0.00  0.00    +0.000 C 
ATOM      2  C   UNL     1       4.785   0.683  -0.040  0.00  0.00    +0.000 C 
ATOM      3  S   UNL     1       6.532  -1.423  -0.068  0.00  0.00    +0.000 SA
ENDROOT
BRANCH   2   4
ATOM      4  N   UNL     1       4.463   2.021  -0.030  0.00  0.00    +0.000 N 
ATOM      5  C   UNL     1       4.777   2.771  -1.078  0.00  0.00    +0.000 A 
ATOM      6  C   UNL     1       4.470   4.115  -1.104  0.00  0.00    +0.000 A 
ATOM      7  C   UNL     1       3.824   4.685  -0.016  0.00  0.00    +0.000 A 
ATOM      8  C   UNL     1       3.507   3.872   1.069  0.00  0.00    +0.000 A 
ATOM      9  C   UNL     1       3.841   2.529   1.026  0.00  0.00    +0.000 A 
ATOM     10  O   UNL     1       2.874   4.389   2.155  0.00  0.00    +0.000 OA
ENDBRANCH   2   4
BRANCH   1  11
ATOM     11  N   UNL     1       7.112   1.234  -0.059  0.00  0.00    +0.000 N 
ATOM     12  H   UNL     1       6.871   2.235  -0.051  0.00  0.00    +0.000 HD
BRANCH  11  13
ATOM     13  C   UNL     1       8.517   0.819  -0.075  0.00  0.00    +0.000 C 
BRANCH  13  15
ATOM     14  C   UNL     1       9.739   2.723  -1.377  0.00  0.00    +0.000 C 
ATOM     15  C   UNL     1       9.401   2.039  -0.077  0.00  0.00    +0.000 C 
ATOM     16  C   UNL     1       9.876   2.506   1.052  0.00  0.00    +0.000 C 
ENDBRANCH  13  15
ENDBRANCH  11  13
ENDBRANCH   1  11
BRANCH   2  17
ATOM     17  C   UNL     1       3.761  -0.290  -0.035  0.00  0.00    +0.000 C 
ATOM     18  O   UNL     1       4.047  -1.477  -0.044  0.00  0.00    +0.000 OA
BRANCH  17  19
ATOM     19  C   UNL     1       2.352   0.126  -0.020  0.00  0.00    +0.000 A 
ATOM     20  C   UNL     1       1.210  -0.658  -0.013  0.00  0.00    +0.000 A 
ATOM     21  C   UNL     1       0.002  -0.004   0.002  0.00  0.00    +0.000 A 
ATOM     22  C   UNL     1      -0.016   1.354   0.009  0.00  0.00    +0.000 A 
ATOM     23  S   UNL     1       1.666   1.772  -0.004  0.00  0.00    +0.000 S 
BRANCH  22  24
ATOM     24  C   UNL     1      -1.210   2.274   0.020  0.00  0.00    +0.000 C 
BRANCH  24  25
ATOM     25  N   UNL     1      -1.590   2.564   1.405  0.00  0.00    +0.000 N 
ATOM     26  C   UNL     1      -2.638   3.372   1.661  0.00  0.00    +0.000 C 
ATOM     27  O   UNL     1      -3.267   3.858   0.745  0.00  0.00    +0.000 OA
ATOM     28  C   UNL     1      -3.029   3.671   3.086  0.00  0.00    +0.000 C 
ATOM     29  H   UNL     1      -1.056   2.151   2.183  0.00  0.00    +0.000 HD
ENDBRANCH  24  25
ENDBRANCH  22  24
ENDBRANCH  17  19
ENDBRANCH   2  17
TORSDOF 8
ENDMDL
MODEL      671
REMARK  Name = ZINC06294350
REMARK  11 active torsions:
REMARK  status: ('A' for Active; 'I' for Inactive)
REMARK    1  A    between atoms: C_1  and  C_2
REMARK    2  A    between atoms: C_2  and  N_30
REMARK    3  A    between atoms: C_3  and  C_4
REMARK    4  A    between atoms: C_3  and  N_30
REMARK    5  A    between atoms: C_5  and  C_6
REMARK    6  A    between atoms: C_5  and  N_30
REMARK    7  A    between atoms: C_6  and  C_7
REMARK    8  A    between atoms: C_7  and  N_8
REMARK    9  A    between atoms: C_9  and  C_23
REMARK   10  A    between atoms: C_11  and  C_12
REMARK   11  A    between atoms: C_27  and  O_29
REMARK                            x       y       z     vdW  Elec       q    Type
REMARK                         _______ _______ _______ _____ _____    ______ ____
ROOT
ATOM      1  N   UNL     1       4.101  -0.452  -1.890  0.00  0.00    +0.000 N 
ATOM      2  C   UNL     1       5.159  -1.448  -1.697  0.00  0.00    +0.000 C 
ATOM      3  C   UNL     1       6.474  -0.714  -1.829  0.00  0.00    +0.000 C 
ATOM      4  C   UNL     1       7.739  -1.254  -1.721  0.00  0.00    +0.000 C 
ATOM      5  O   UNL     1       7.893  -2.538  -1.334  0.00  0.00    +0.000 OA
ATOM      6  C   UNL     1       6.148   0.628  -2.084  0.00  0.00    +0.000 C 
ATOM      7  O   UNL     1       6.941   1.536  -2.251  0.00  0.00    +0.000 OA
ATOM      8  C   UNL     1       4.665   0.746  -2.119  0.00  0.00    +0.000 C 
ATOM      9  O   UNL     1       4.054   1.776  -2.323  0.00  0.00    +0.000 OA
ENDROOT
BRANCH   2  10
ATOM     10  C   UNL     1       5.057  -2.519  -2.751  0.00  0.00    +0.000 A 
ATOM     11  C   UNL     1       4.743  -2.179  -4.055  0.00  0.00    +0.000 A 
ATOM     12  C   UNL     1       4.654  -3.159  -5.025  0.00  0.00    +0.000 A 
ATOM     13  C   UNL     1       4.868  -4.484  -4.693  0.00  0.00    +0.000 A 
ATOM     14  C   UNL     1       5.176  -4.828  -3.385  0.00  0.00    +0.000 A 
ATOM     15  C   UNL     1       5.271  -3.842  -2.414  0.00  0.00    +0.000 A 
BRANCH  14  16
ATOM     16  O   UNL     1       5.386  -6.130  -3.056  0.00  0.00    +0.000 OA
ATOM     17  H   UNL     1       6.111  -6.431  -3.659  0.00  0.00    +0.000 HD
ENDBRANCH  14  16
ENDBRANCH   2  10
BRANCH   4  18
ATOM     18  C   UNL     1       8.920  -0.429  -2.027  0.00  0.00    +0.000 A 
ATOM     19  C   UNL     1       8.991   0.279  -3.231  0.00  0.00    +0.000 A 
ATOM     20  C   UNL     1      10.098   1.053  -3.508  0.00  0.00    +0.000 A 
ATOM     21  C   UNL     1      11.143   1.121  -2.602  0.00  0.00    +0.000 A 
ATOM     22  C   UNL     1      11.083   0.419  -1.411  0.00  0.00    +0.000 A 
ATOM     23  C   UNL     1       9.980  -0.355  -1.117  0.00  0.00    +0.000 A 
ENDBRANCH   4  18
BRANCH   1  24
ATOM     24  C   UNL     1       2.662  -0.720  -1.847  0.00  0.00    +0.000 C 
BRANCH  24  25
ATOM     25  C   UNL     1       2.154  -0.546  -0.414  0.00  0.00    +0.000 C 
BRANCH  25  26
ATOM     26  C   UNL     1       0.650  -0.826  -0.368  0.00  0.00    +0.000 C 
BRANCH  26  27
ATOM     27  N   UNL     1       0.175  -0.644   1.020  0.00  0.00    +0.000 N 
ATOM     28  H   UNL     1       0.576   0.225   1.399  0.00  0.00    +0.000 HD
BRANCH  27  30
ATOM     29  C   UNL     1      -1.704   0.831   0.503  0.00  0.00    +0.000 C 
ATOM     30  C   UNL     1      -1.299  -0.543   1.040  0.00  0.00    +0.000 C 
ENDBRANCH  27  30
BRANCH  27  31
ATOM     31  C   UNL     1       0.615  -1.781   1.857  0.00  0.00    +0.000 C 
ATOM     32  C   UNL     1       0.308  -1.462   3.321  0.00  0.00    +0.000 C 
ENDBRANCH  27  31
ENDBRANCH  26  27
ENDBRANCH  25  26
ENDBRANCH  24  25
ENDBRANCH   1  24
TORSDOF 9
ENDMDL
MODEL      672
REMARK  Name = ZINC28949037
REMARK  10 active torsions:
REMARK  status: ('A' for Active; 'I' for Inactive)
REMARK    1  A    between atoms: C_1  and  C_2
REMARK    2  A    between atoms: C_4  and  N_7
REMARK    3  A    between atoms: C_8  and  C_10
REMARK    4  A    between atoms: C_10  and  C_11
REMARK    5  A    between atoms: C_10  and  S_12
REMARK    6  A    between atoms: S_12  and  C_13
REMARK    7  A    between atoms: C_16  and  C_23
REMARK    8  A    between atoms: N_17  and  C_18
REMARK    9  A    between atoms: C_18  and  C_19
REMARK   10  A    between atoms: C_19  and  C_20
REMARK                            x       y       z     vdW  Elec       q    Type
REMARK                         _______ _______ _______ _____ _____    ______ ____
ROOT
ATOM      1  C   UNL     1      -0.241  -0.075   3.128  0.00  0.00    +0.000 A 
ATOM      2  N   UNL     1       0.614  -0.118   4.124  0.00  0.00    +0.000 NA
ATOM      3  N   UNL     1       1.343   0.940   4.127  0.00  0.00    +0.000 NA
ATOM      4  C   UNL     1       1.004   1.722   3.127  0.00  0.00    +0.000 A 
ATOM      5  N   UNL     1      -0.020   1.094   2.454  0.00  0.00    +0.000 N 
ENDROOT
BRANCH   4   6
ATOM      6  C   UNL     1       1.603   3.024   2.791  0.00  0.00    +0.000 A 
ATOM      7  C   UNL     1       2.409   3.829   3.557  0.00  0.00    +0.000 A 
ATOM      8  C   UNL     1       2.859   5.014   3.021  0.00  0.00    +0.000 A 
ATOM      9  C   UNL     1       2.485   5.356   1.761  0.00  0.00    +0.000 A 
ATOM     10  S   UNL     1       1.467   3.970   1.283  0.00  0.00    +0.000 S 
ENDBRANCH   4   6
BRANCH   1  11
ATOM     11  S   UNL     1      -1.446  -1.298   2.731  0.00  0.00    +0.000 S 
BRANCH  11  12
ATOM     12  C   UNL     1      -1.121  -2.498   4.047  0.00  0.00    +0.000 C 
ATOM     13  C   UNL     1      -1.456  -1.871   5.402  0.00  0.00    +0.000 C 
BRANCH  12  15
ATOM     14  N   UNL     1      -1.640  -4.887   4.420  0.00  0.00    +0.000 N 
ATOM     15  C   UNL     1      -1.976  -3.720   3.835  0.00  0.00    +0.000 C 
ATOM     16  O   UNL     1      -2.966  -3.655   3.137  0.00  0.00    +0.000 OA
ATOM     17  H   UNL     1      -0.799  -4.943   5.012  0.00  0.00    +0.000 HD
BRANCH  14  21
ATOM     18  C   UNL     1      -3.565  -9.478   4.502  0.00  0.00    +0.000 C 
ATOM     19  C   UNL     1      -3.294  -8.019   4.242  0.00  0.00    +0.000 A 
ATOM     20  C   UNL     1      -2.220  -7.258   4.745  0.00  0.00    +0.000 A 
ATOM     21  C   UNL     1      -2.427  -6.013   4.224  0.00  0.00    +0.000 A 
ATOM     22  O   UNL     1      -3.547  -6.095   3.490  0.00  0.00    +0.000 OA
ATOM     23  N   UNL     1      -4.008  -7.212   3.508  0.00  0.00    +0.000 NA
ENDBRANCH  14  21
ENDBRANCH  12  15
ENDBRANCH  11  12
ENDBRANCH   1  11
BRANCH   5  24
ATOM     24  C   UNL     1      -0.729   1.579   1.267  0.00  0.00    +0.000 C 
BRANCH  24  25
ATOM     25  C   UNL     1      -0.013   1.086   0.008  0.00  0.00    +0.000 C 
BRANCH  25  26
ATOM     26  C   UNL     1      -0.742   1.585  -1.213  0.00  0.00    +0.000 C 
ATOM     27  O   UNL     1      -1.736   2.268  -1.088  0.00  0.00    +0.000 OA
ATOM     28  N   UNL     1      -0.288   1.272  -2.443  0.00  0.00    +0.000 N 
ATOM     29  H   UNL     1       0.556   0.692  -2.549  0.00  0.00    +0.000 HD
ATOM     30  H   UNL     1      -0.787   1.613  -3.278  0.00  0.00    +0.000 HD
ENDBRANCH  25  26
ENDBRANCH  24  25
ENDBRANCH   5  24
TORSDOF 8
ENDMDL
MODEL      673
REMARK  Name = ZINC06414339
REMARK  11 active torsions:
REMARK  status: ('A' for Active; 'I' for Inactive)
REMARK    1  A    between atoms: C_1  and  O_2
REMARK    2  A    between atoms: O_2  and  C_3
REMARK    3  A    between atoms: C_6  and  N_9
REMARK    4  A    between atoms: C_14  and  C_15
REMARK    5  A    between atoms: C_14  and  N_29
REMARK    6  A    between atoms: C_15  and  C_16
REMARK    7  A    between atoms: C_15  and  O_28
REMARK    8  A    between atoms: C_16  and  O_17
REMARK    9  A    between atoms: O_17  and  C_18
REMARK   10  A    between atoms: C_21  and  C_24
REMARK   11  A    between atoms: N_26  and  N_27
REMARK                            x       y       z     vdW  Elec       q    Type
REMARK                         _______ _______ _______ _____ _____    ______ ____
ROOT
ATOM      1  C   UNL     1       1.061   8.058  -2.346  0.00  0.00    +0.000 C 
ENDROOT
BRANCH   1   2
ATOM      2  O   UNL     1       1.853   7.597  -3.443  0.00  0.00    +0.000 OA
ATOM      3  H   UNL     1       1.866   6.607  -3.450  0.00  0.00    +0.000 HD
ENDBRANCH   1   2
BRANCH   1   4
ATOM      4  C   UNL     1       1.662   7.549  -1.035  0.00  0.00    +0.000 C 
BRANCH   4  10
ATOM      5  N   UNL     1       1.159   3.486   0.009  0.00  0.00    +0.000 N 
ATOM      6  C   UNL     1       0.378   4.009  -1.121  0.00  0.00    +0.000 C 
ATOM      7  C   UNL     1       0.316   5.535  -1.032  0.00  0.00    +0.000 C 
ATOM      8  C   UNL     1       2.462   5.557   0.088  0.00  0.00    +0.000 C 
ATOM      9  C   UNL     1       2.523   4.031  -0.001  0.00  0.00    +0.000 C 
ATOM     10  N   UNL     1       1.694   6.071  -1.066  0.00  0.00    +0.000 N 
ATOM     11  H   UNL     1       2.151   5.764  -1.936  0.00  0.00    +0.000 HD
BRANCH   5  15
ATOM     12  C   UNL     1       1.212  -0.681  -0.014  0.00  0.00    +0.000 A 
ATOM     13  C   UNL     1       0.002  -0.004   0.002  0.00  0.00    +0.000 A 
ATOM     14  C   UNL     1      -0.017   1.377   0.010  0.00  0.00    +0.000 A 
ATOM     15  C   UNL     1       1.177   2.087   0.002  0.00  0.00    +0.000 A 
ATOM     16  C   UNL     1       2.388   1.408  -0.012  0.00  0.00    +0.000 A 
ATOM     17  C   UNL     1       2.405   0.027  -0.021  0.00  0.00    +0.000 A 
BRANCH  12  19
ATOM     18  C   UNL     1       2.511  -2.674  -0.038  0.00  0.00    +0.000 C 
ATOM     19  O   UNL     1       1.230  -2.041  -0.022  0.00  0.00    +0.000 OA
ENDBRANCH  12  19
ENDBRANCH   5  15
ENDBRANCH   4  10
ENDBRANCH   1   4
BRANCH   1  20
ATOM     20  C   UNL     1       1.042   9.588  -2.339  0.00  0.00    +0.000 C 
BRANCH  20  21
ATOM     21  O   UNL     1       0.375  10.062  -3.511  0.00  0.00    +0.000 OA
BRANCH  21  22
ATOM     22  C   UNL     1       0.271  11.406  -3.659  0.00  0.00    +0.000 A 
ATOM     23  C   UNL     1       0.796  12.253  -2.689  0.00  0.00    +0.000 A 
ATOM     24  C   UNL     1       0.696  13.619  -2.838  0.00  0.00    +0.000 A 
ATOM     25  C   UNL     1       0.057  14.152  -3.961  0.00  0.00    +0.000 A 
ATOM     26  C   UNL     1      -0.473  13.297  -4.930  0.00  0.00    +0.000 A 
ATOM     27  C   UNL     1      -0.365  11.933  -4.777  0.00  0.00    +0.000 A 
BRANCH  25  28
ATOM     28  C   UNL     1      -0.056  15.615  -4.122  0.00  0.00    +0.000 C 
ATOM     29  O   UNL     1      -0.612  16.078  -5.100  0.00  0.00    +0.000 OA
ATOM     30  N   UNL     1       0.457  16.438  -3.186  0.00  0.00    +0.000 N 
ATOM     31  H   UNL     1       0.927  16.046  -2.358  0.00  0.00    +0.000 HD
BRANCH  30  32
ATOM     32  N   UNL     1       0.352  17.792  -3.335  0.00  0.00    +0.000 NA
ATOM     33  H   UNL     1      -0.119  18.184  -4.163  0.00  0.00    +0.000 HD
ATOM     34  H   UNL     1       0.744  18.421  -2.620  0.00  0.00    +0.000 HD
ENDBRANCH  30  32
ENDBRANCH  25  28
ENDBRANCH  21  22
ENDBRANCH  20  21
ENDBRANCH   1  20
TORSDOF 10
ENDMDL
MODEL      674
REMARK  Name = ZINC12301721
REMARK  9 active torsions:
REMARK  status: ('A' for Active; 'I' for Inactive)
REMARK    1  A    between atoms: C_1  and  N_2
REMARK    2  A    between atoms: N_2  and  C_3
REMARK    3  A    between atoms: C_3  and  C_4
REMARK    4  A    between atoms: C_10  and  C_12
REMARK    5  A    between atoms: C_13  and  C_21
REMARK    6  A    between atoms: C_21  and  N_30
REMARK    7  A    between atoms: C_22  and  C_23
REMARK    8  A    between atoms: C_22  and  N_30
REMARK    9  A    between atoms: C_23  and  N_24
REMARK                            x       y       z     vdW  Elec       q    Type
REMARK                         _______ _______ _______ _____ _____    ______ ____
ROOT
ATOM      1  C   UNL     1       4.320  -2.895  -3.109  0.00  0.00    +0.000 A 
ATOM      2  C   UNL     1       3.994  -4.122  -3.613  0.00  0.00    +0.000 A 
ATOM      3  N   UNL     1       4.712  -4.287  -4.759  0.00  0.00    +0.000 N 
ATOM      4  C   UNL     1       4.781  -5.310  -5.662  0.00  0.00    +0.000 A 
ATOM      5  C   UNL     1       5.589  -5.224  -6.738  0.00  0.00    +0.000 A 
ATOM      6  C   UNL     1       6.374  -4.077  -6.947  0.00  0.00    +0.000 A 
ATOM      7  C   UNL     1       6.317  -3.050  -6.058  0.00  0.00    +0.000 A 
ATOM      8  C   UNL     1       5.467  -3.154  -4.935  0.00  0.00    +0.000 A 
ATOM      9  N   UNL     1       5.215  -2.325  -3.936  0.00  0.00    +0.000 NA
ENDROOT
BRANCH   1  12
ATOM     10  C   UNL     1       4.877  -0.205  -2.471  0.00  0.00    +0.000 C 
ATOM     11  N   UNL     1       4.094  -1.027  -1.545  0.00  0.00    +0.000 N 
ATOM     12  C   UNL     1       3.779  -2.296  -1.873  0.00  0.00    +0.000 C 
ATOM     13  O   UNL     1       3.048  -2.947  -1.151  0.00  0.00    +0.000 OA
BRANCH  11  14
ATOM     14  C   UNL     1       3.654  -0.471  -0.264  0.00  0.00    +0.000 C 
BRANCH  14  15
ATOM     15  C   UNL     1       2.303   0.176  -0.434  0.00  0.00    +0.000 A 
ATOM     16  C   UNL     1       1.153  -0.566  -0.244  0.00  0.00    +0.000 A 
ATOM     17  C   UNL     1      -0.086   0.027  -0.400  0.00  0.00    +0.000 A 
ATOM     18  C   UNL     1      -0.174   1.363  -0.746  0.00  0.00    +0.000 A 
ATOM     19  C   UNL     1       0.977   2.105  -0.937  0.00  0.00    +0.000 A 
ATOM     20  C   UNL     1       2.215   1.511  -0.781  0.00  0.00    +0.000 A 
ENDBRANCH  14  15
ENDBRANCH  11  14
ENDBRANCH   1  12
BRANCH   2  21
ATOM     21  C   UNL     1       3.024  -5.107  -3.015  0.00  0.00    +0.000 C 
BRANCH  21  22
ATOM     22  N   UNL     1       3.749  -5.999  -2.091  0.00  0.00    +0.000 N 
ATOM     23  H   UNL     1       4.486  -6.501  -2.608  0.00  0.00    +0.000 HD
ATOM     24  H   UNL     1       4.185  -5.438  -1.344  0.00  0.00    +0.000 HD
BRANCH  22  25
ATOM     25  C   UNL     1       2.823  -6.977  -1.489  0.00  0.00    +0.000 C 
BRANCH  25  26
ATOM     26  C   UNL     1       3.602  -7.886  -0.537  0.00  0.00    +0.000 C 
BRANCH  26  27
ATOM     27  N   UNL     1       2.688  -8.860   0.065  0.00  0.00    +0.000 N 
ATOM     28  C   UNL     1       1.946  -8.670   1.320  0.00  0.00    +0.000 C 
ATOM     29  C   UNL     1       1.149  -9.979   1.480  0.00  0.00    +0.000 C 
ATOM     30  N   UNL     1       1.534 -10.772   0.303  0.00  0.00    +0.000 N 
ATOM     31  C   UNL     1       2.401 -10.068  -0.437  0.00  0.00    +0.000 C 
ATOM     32  O   UNL     1       2.882 -10.488  -1.472  0.00  0.00    +0.000 OA
ATOM     33  H   UNL     1       1.192 -11.718   0.083  0.00  0.00    +0.000 HD
ENDBRANCH  26  27
ENDBRANCH  25  26
ENDBRANCH  22  25
ENDBRANCH  21  22
ENDBRANCH   2  21
TORSDOF 8
ENDMDL
MODEL      675
REMARK  Name = ZINC04941668
REMARK  11 active torsions:
REMARK  status: ('A' for Active; 'I' for Inactive)
REMARK    1  A    between atoms: C_1  and  N_28
REMARK    2  A    between atoms: C_2  and  N_28
REMARK    3  A    between atoms: C_3  and  C_4
REMARK    4  A    between atoms: C_3  and  N_28
REMARK    5  A    between atoms: C_4  and  C_5
REMARK    6  A    between atoms: C_5  and  N_6
REMARK    7  A    between atoms: C_7  and  C_9
REMARK    8  A    between atoms: N_11  and  C_12
REMARK    9  A    between atoms: N_16  and  C_17
REMARK   10  A    between atoms: C_20  and  O_23
REMARK   11  A    between atoms: O_23  and  C_24
REMARK                            x       y       z     vdW  Elec       q    Type
REMARK                         _______ _______ _______ _____ _____    ______ ____
ROOT
ATOM      1  C   UNL     1      -0.694   1.804  -2.305  0.00  0.00    +0.000 A 
ATOM      2  C   UNL     1      -1.123   1.737  -0.998  0.00  0.00    +0.000 A 
ATOM      3  C   UNL     1      -2.397   2.277  -0.942  0.00  0.00    +0.000 A 
ATOM      4  N   UNL     1      -2.740   2.662  -2.164  0.00  0.00    +0.000 NA
ATOM      5  N   UNL     1      -1.686   2.374  -3.033  0.00  0.00    +0.000 N 
ATOM      6  C   UNL     1      -3.072   2.304   0.428  0.00  0.00    +0.000 C 
ATOM      7  S   UNL     1      -1.648   2.006   1.556  0.00  0.00    +0.000 S 
ATOM      8  C   UNL     1      -0.533   1.229   0.316  0.00  0.00    +0.000 C 
ENDROOT
BRANCH   5   9
ATOM      9  C   UNL     1      -1.659   2.628  -4.412  0.00  0.00    +0.000 A 
ATOM     10  C   UNL     1      -0.502   3.115  -5.006  0.00  0.00    +0.000 A 
ATOM     11  C   UNL     1      -0.474   3.361  -6.364  0.00  0.00    +0.000 A 
ATOM     12  C   UNL     1      -1.605   3.130  -7.135  0.00  0.00    +0.000 A 
ATOM     13  C   UNL     1      -2.763   2.648  -6.541  0.00  0.00    +0.000 A 
ATOM     14  C   UNL     1      -2.790   2.398  -5.184  0.00  0.00    +0.000 A 
BRANCH  12  15
ATOM     15  O   UNL     1      -1.578   3.377  -8.471  0.00  0.00    +0.000 OA
ATOM     16  C   UNL     1      -0.353   3.872  -9.015  0.00  0.00    +0.000 C 
ENDBRANCH  12  15
ENDBRANCH   5   9
BRANCH   1  19
ATOM     17  C   UNL     1       1.192   0.372  -2.161  0.00  0.00    +0.000 C 
ATOM     18  O   UNL     1       0.669  -0.209  -1.232  0.00  0.00    +0.000 OA
ATOM     19  N   UNL     1       0.535   1.366  -2.790  0.00  0.00    +0.000 N 
ATOM     20  H   UNL     1       0.942   1.802  -3.630  0.00  0.00    +0.000 HD
BRANCH  17  22
ATOM     21  N   UNL     1       3.222  -1.008  -1.976  0.00  0.00    +0.000 N 
ATOM     22  C   UNL     1       2.564  -0.014  -2.605  0.00  0.00    +0.000 C 
ATOM     23  O   UNL     1       3.087   0.567  -3.533  0.00  0.00    +0.000 OA
ATOM     24  H   UNL     1       2.778  -1.501  -1.188  0.00  0.00    +0.000 HD
BRANCH  21  25
ATOM     25  C   UNL     1       4.568  -1.387  -2.412  0.00  0.00    +0.000 C 
BRANCH  25  26
ATOM     26  C   UNL     1       5.084  -2.531  -1.538  0.00  0.00    +0.000 C 
BRANCH  26  27
ATOM     27  C   UNL     1       6.490  -2.927  -1.994  0.00  0.00    +0.000 C 
BRANCH  27  30
ATOM     28  C   UNL     1       8.225  -4.591  -1.705  0.00  0.00    +0.000 C 
ATOM     29  C   UNL     1       7.180  -3.584   0.233  0.00  0.00    +0.000 C 
ATOM     30  N   UNL     1       6.966  -4.047  -1.155  0.00  0.00    +0.000 N 
ATOM     31  H   UNL     1       6.253  -4.790  -1.153  0.00  0.00    +0.000 HD
ENDBRANCH  27  30
ENDBRANCH  26  27
ENDBRANCH  25  26
ENDBRANCH  21  25
ENDBRANCH  17  22
ENDBRANCH   1  19
TORSDOF 8
ENDMDL
MODEL      676
REMARK  Name = ZINC11899088
REMARK  10 active torsions:
REMARK  status: ('A' for Active; 'I' for Inactive)
REMARK    1  A    between atoms: C_1  and  N_2
REMARK    2  A    between atoms: C_6  and  C_7
REMARK    3  A    between atoms: C_7  and  C_8
REMARK    4  A    between atoms: C_7  and  N_28
REMARK    5  A    between atoms: C_8  and  N_9
REMARK    6  A    between atoms: C_10  and  C_12
REMARK    7  A    between atoms: N_14  and  C_15
REMARK    8  A    between atoms: C_15  and  C_16
REMARK    9  A    between atoms: C_16  and  N_27
REMARK   10  A    between atoms: C_26  and  N_29
REMARK                            x       y       z     vdW  Elec       q    Type
REMARK                         _______ _______ _______ _____ _____    ______ ____
ROOT
ATOM      1  C   UNL     1      -2.052  -0.162   1.313  0.00  0.00    +0.000 C 
ENDROOT
BRANCH   1   2
ATOM      2  N   UNL     1      -1.213  -0.600   2.431  0.00  0.00    +0.000 N 
ATOM      3  C   UNL     1      -1.573  -0.312   3.697  0.00  0.00    +0.000 C 
ATOM      4  O   UNL     1      -2.592   0.311   3.912  0.00  0.00    +0.000 OA
ATOM      5  H   UNL     1      -0.347  -1.128   2.249  0.00  0.00    +0.000 HD
BRANCH   3   6
ATOM      6  C   UNL     1      -0.716  -0.759   4.838  0.00  0.00    +0.000 C 
ATOM      7  O   UNL     1       0.303  -1.381   4.623  0.00  0.00    +0.000 OA
ATOM      8  N   UNL     1      -1.076  -0.470   6.104  0.00  0.00    +0.000 N 
ATOM      9  H   UNL     1      -1.941   0.058   6.286  0.00  0.00    +0.000 HD
BRANCH   8  10
ATOM     10  C   UNL     1      -0.237  -0.909   7.222  0.00  0.00    +0.000 C 
BRANCH  10  11
ATOM     11  C   UNL     1      -0.867  -0.456   8.541  0.00  0.00    +0.000 C 
BRANCH  11  17
ATOM     12  C   UNL     1      -0.017  -2.361   9.771  0.00  0.00    +0.000 C 
ATOM     13  C   UNL     1       0.917  -2.777  10.911  0.00  0.00    +0.000 C 
ATOM     14  O   UNL     1       0.493  -2.147  12.122  0.00  0.00    +0.000 OA
ATOM     15  C   UNL     1       0.473  -0.718  12.051  0.00  0.00    +0.000 C 
ATOM     16  C   UNL     1      -0.465  -0.281  10.923  0.00  0.00    +0.000 C 
ATOM     17  N   UNL     1       0.001  -0.888   9.658  0.00  0.00    +0.000 NA
ENDBRANCH  11  17
ENDBRANCH  10  11
ENDBRANCH   8  10
ENDBRANCH   3   6
ENDBRANCH   1   2
BRANCH   1  18
ATOM     18  C   UNL     1      -1.345  -0.471  -0.008  0.00  0.00    +0.000 C 
BRANCH  18  24
ATOM     19  C   UNL     1      -0.580   1.780  -0.472  0.00  0.00    +0.000 C 
ATOM     20  C   UNL     1       0.667   2.639  -0.693  0.00  0.00    +0.000 C 
ATOM     21  C   UNL     1       1.907   1.232   0.837  0.00  0.00    +0.000 C 
ATOM     22  C   UNL     1       0.660   0.372   1.057  0.00  0.00    +0.000 C 
ATOM     23  C   UNL     1       2.672   3.482   0.373  0.00  0.00    +0.000 C 
ATOM     24  N   UNL     1      -0.158   0.395  -0.174  0.00  0.00    +0.000 NA
ATOM     25  N   UNL     1       1.485   2.616   0.538  0.00  0.00    +0.000 N 
ATOM     26  H   UNL     1       0.920   2.971   1.323  0.00  0.00    +0.000 HD
ENDBRANCH  18  24
BRANCH  18  32
ATOM     27  C   UNL     1      -3.176  -2.966   0.178  0.00  0.00    +0.000 C 
ATOM     28  N   UNL     1      -1.716  -3.000   0.068  0.00  0.00    +0.000 N 
ATOM     29  C   UNL     1      -0.948  -4.126   0.027  0.00  0.00    +0.000 A 
ATOM     30  C   UNL     1       0.344  -3.752  -0.070  0.00  0.00    +0.000 A 
ATOM     31  C   UNL     1       0.375  -2.344  -0.097  0.00  0.00    +0.000 A 
ATOM     32  C   UNL     1      -0.900  -1.911  -0.014  0.00  0.00    +0.000 A 
ENDBRANCH  18  32
ENDBRANCH   1  18
TORSDOF 8
ENDMDL
MODEL      677
REMARK  Name = ZINC25194189
REMARK  9 active torsions:
REMARK  status: ('A' for Active; 'I' for Inactive)
REMARK    1  A    between atoms: C_1  and  N_2
REMARK    2  A    between atoms: C_3  and  C_5
REMARK    3  A    between atoms: C_8  and  C_11
REMARK    4  A    between atoms: C_11  and  N_12
REMARK    5  A    between atoms: N_12  and  C_13
REMARK    6  A    between atoms: N_12  and  C_28
REMARK    7  A    between atoms: C_13  and  C_14
REMARK    8  A    between atoms: C_14  and  C_16
REMARK    9  A    between atoms: C_18  and  C_21
REMARK                            x       y       z     vdW  Elec       q    Type
REMARK                         _______ _______ _______ _____ _____    ______ ____
ROOT
ATOM      1  N   UNL     1      -2.432   4.283   0.057  0.00  0.00    +0.000 NA
ENDROOT
BRANCH   1   2
ATOM      2  C   UNL     1      -3.166   3.892  -1.154  0.00  0.00    +0.000 C 
ATOM      3  C   UNL     1      -4.540   3.244  -0.969  0.00  0.00    +0.000 C 
ATOM      4  C   UNL     1      -3.348   2.396  -1.418  0.00  0.00    +0.000 C 
ENDBRANCH   1   2
BRANCH   1   5
ATOM      5  C   UNL     1      -2.449   5.741   0.235  0.00  0.00    +0.000 C 
BRANCH   5   9
ATOM      6  C   UNL     1      -6.450   7.036   1.009  0.00  0.00    +0.000 A 
ATOM      7  C   UNL     1      -5.611   6.681   2.067  0.00  0.00    +0.000 A 
ATOM      8  C   UNL     1      -4.321   6.264   1.810  0.00  0.00    +0.000 A 
ATOM      9  C   UNL     1      -3.859   6.197   0.508  0.00  0.00    +0.000 A 
ATOM     10  C   UNL     1      -4.684   6.553  -0.545  0.00  0.00    +0.000 A 
ATOM     11  C   UNL     1      -5.977   6.967  -0.302  0.00  0.00    +0.000 A 
BRANCH   6  14
ATOM     12  C   UNL     1     -10.012   8.270   0.519  0.00  0.00    +0.000 C 
ATOM     13  N   UNL     1      -8.641   7.826   0.254  0.00  0.00    +0.000 N 
ATOM     14  C   UNL     1      -7.833   7.484   1.277  0.00  0.00    +0.000 C 
ATOM     15  O   UNL     1      -8.242   7.543   2.420  0.00  0.00    +0.000 OA
ATOM     16  H   UNL     1      -8.294   7.776  -0.715  0.00  0.00    +0.000 HD
ENDBRANCH   6  14
ENDBRANCH   5   9
ENDBRANCH   1   5
BRANCH   1  17
ATOM     17  C   UNL     1      -1.055   3.772   0.025  0.00  0.00    +0.000 C 
BRANCH  17  18
ATOM     18  C   UNL     1      -0.497   3.743   1.425  0.00  0.00    +0.000 C 
ATOM     19  O   UNL     1      -1.149   4.189   2.346  0.00  0.00    +0.000 OA
BRANCH  18  20
ATOM     20  C   UNL     1       0.832   3.177   1.673  0.00  0.00    +0.000 A 
ATOM     21  C   UNL     1       1.486   3.080   2.925  0.00  0.00    +0.000 A 
ATOM     22  C   UNL     1       2.692   2.487   2.699  0.00  0.00    +0.000 A 
ATOM     23  N   UNL     1       2.798   2.217   1.351  0.00  0.00    +0.000 N 
ATOM     24  C   UNL     1       1.685   2.629   0.727  0.00  0.00    +0.000 A 
ATOM     25  H   UNL     1       3.606   1.770   0.895  0.00  0.00    +0.000 HD
BRANCH  22  26
ATOM     26  C   UNL     1       3.705   2.185   3.718  0.00  0.00    +0.000 C 
ATOM     27  O   UNL     1       3.499   2.469   4.883  0.00  0.00    +0.000 OA
ATOM     28  N   UNL     1       4.862   1.593   3.363  0.00  0.00    +0.000 N 
ATOM     29  C   UNL     1       5.236   1.191   1.999  0.00  0.00    +0.000 C 
ATOM     30  C   UNL     1       6.631   0.536   2.080  0.00  0.00    +0.000 C 
ATOM     31  C   UNL     1       6.716   0.088   3.563  0.00  0.00    +0.000 C 
ATOM     32  C   UNL     1       5.961   1.235   4.279  0.00  0.00    +0.000 C 
ENDBRANCH  22  26
ENDBRANCH  18  20
ENDBRANCH  17  18
ENDBRANCH   1  17
TORSDOF 8
ENDMDL
MODEL      678
REMARK  Name = ZINC29937211
REMARK  10 active torsions:
REMARK  status: ('A' for Active; 'I' for Inactive)
REMARK    1  A    between atoms: C_1  and  C_2
REMARK    2  A    between atoms: C_3  and  N_9
REMARK    3  A    between atoms: C_10  and  C_12
REMARK    4  A    between atoms: C_12  and  N_13
REMARK    5  A    between atoms: C_14  and  C_16
REMARK    6  A    between atoms: C_16  and  N_17
REMARK    7  A    between atoms: N_17  and  C_18
REMARK    8  A    between atoms: C_21  and  C_24
REMARK    9  A    between atoms: C_24  and  C_25
REMARK   10  A    between atoms: N_27  and  C_28
REMARK                            x       y       z     vdW  Elec       q    Type
REMARK                         _______ _______ _______ _____ _____    ______ ____
ROOT
ATOM      1  N   UNL     1      -1.406   6.124  -0.264  0.00  0.00    +0.000 N 
ATOM      2  C   UNL     1      -1.662   7.443  -0.365  0.00  0.00    +0.000 C 
ATOM      3  O   UNL     1      -0.747   8.238  -0.389  0.00  0.00    +0.000 OA
ATOM      4  H   UNL     1      -2.183   5.448  -0.244  0.00  0.00    +0.000 HD
ENDROOT
BRANCH   1   5
ATOM      5  C   UNL     1      -0.022   5.650  -0.183  0.00  0.00    +0.000 C 
BRANCH   5   7
ATOM      6  N   UNL     1       1.161   3.486   0.010  0.00  0.00    +0.000 N 
ATOM      7  C   UNL     1      -0.011   4.147  -0.077  0.00  0.00    +0.000 C 
ATOM      8  O   UNL     1      -1.056   3.531  -0.071  0.00  0.00    +0.000 OA
ATOM      9  H   UNL     1       2.043   4.011   0.090  0.00  0.00    +0.000 HD
BRANCH   6  12
ATOM     10  C   UNL     1       3.359   2.153   1.228  0.00  0.00    +0.000 C 
ATOM     11  C   UNL     1       2.232   1.396   0.575  0.00  0.00    +0.000 A 
ATOM     12  C   UNL     1       1.178   2.087  -0.009  0.00  0.00    +0.000 A 
ATOM     13  C   UNL     1       0.141   1.387  -0.611  0.00  0.00    +0.000 A 
ATOM     14  C   UNL     1       0.160   0.005  -0.628  0.00  0.00    +0.000 A 
ATOM     15  C   UNL     1       1.210  -0.680  -0.047  0.00  0.00    +0.000 A 
ATOM     16  C   UNL     1       2.246   0.015   0.554  0.00  0.00    +0.000 A 
ATOM     17 CL   UNL     1       3.563  -0.850   1.283  0.00  0.00    +0.000 Cl
ENDBRANCH   6  12
ENDBRANCH   5   7
ENDBRANCH   1   5
BRANCH   2  18
ATOM     18  C   UNL     1      -3.086   7.930  -0.449  0.00  0.00    +0.000 C 
BRANCH  18  19
ATOM     19  N   UNL     1      -3.096   9.391  -0.551  0.00  0.00    +0.000 N 
ATOM     20  H   UNL     1      -2.209   9.914  -0.557  0.00  0.00    +0.000 HD
BRANCH  19  21
ATOM     21  C   UNL     1      -4.311  10.076  -0.641  0.00  0.00    +0.000 A 
ATOM     22  C   UNL     1      -5.508   9.373  -0.640  0.00  0.00    +0.000 A 
ATOM     23  C   UNL     1      -6.707  10.053  -0.724  0.00  0.00    +0.000 A 
ATOM     24  C   UNL     1      -6.716  11.433  -0.821  0.00  0.00    +0.000 A 
ATOM     25  C   UNL     1      -5.525  12.136  -0.828  0.00  0.00    +0.000 A 
ATOM     26  C   UNL     1      -4.323  11.462  -0.739  0.00  0.00    +0.000 A 
BRANCH  24  27
ATOM     27  C   UNL     1      -8.025  12.171  -0.918  0.00  0.00    +0.000 C 
BRANCH  27  28
ATOM     28  C   UNL     1      -8.412  12.319  -2.367  0.00  0.00    +0.000 C 
ATOM     29  O   UNL     1      -7.695  11.869  -3.235  0.00  0.00    +0.000 OA
ATOM     30  N   UNL     1      -9.556  12.952  -2.698  0.00  0.00    +0.000 N 
ATOM     31  C   UNL     1      -9.932  13.096  -4.107  0.00  0.00    +0.000 C 
ATOM     32  H   UNL     1     -10.165  13.334  -1.961  0.00  0.00    +0.000 HD
ENDBRANCH  27  28
ENDBRANCH  24  27
ENDBRANCH  19  21
ENDBRANCH  18  19
ENDBRANCH   2  18
TORSDOF 8
ENDMDL
MODEL      679
REMARK  Name = ZINC30884883
REMARK  8 active torsions:
REMARK  status: ('A' for Active; 'I' for Inactive)
REMARK    1  A    between atoms: C_4  and  C_25
REMARK    2  A    between atoms: C_5  and  C_7
REMARK    3  A    between atoms: C_7  and  N_8
REMARK    4  A    between atoms: C_9  and  C_11
REMARK    5  A    between atoms: C_11  and  O_12
REMARK    6  A    between atoms: O_12  and  C_13
REMARK    7  A    between atoms: C_13  and  C_14
REMARK    8  A    between atoms: C_25  and  N_26
REMARK                            x       y       z     vdW  Elec       q    Type
REMARK                         _______ _______ _______ _____ _____    ______ ____
ROOT
ATOM      1  N   UNL     1       3.899   8.657   0.007  0.00  0.00    +0.000 N 
ATOM      2  C   UNL     1       2.943   7.707   0.012  0.00  0.00    +0.000 C 
ATOM      3  O   UNL     1       1.773   8.024   0.026  0.00  0.00    +0.000 OA
ATOM      4  H   UNL     1       4.893   8.388  -0.004  0.00  0.00    +0.000 HD
ENDROOT
BRANCH   1   5
ATOM      5  C   UNL     1       3.524  10.073   0.018  0.00  0.00    +0.000 C 
BRANCH   5  10
ATOM      6  C   UNL     1       6.375  12.258   1.180  0.00  0.00    +0.000 A 
ATOM      7  C   UNL     1       7.051  12.482  -0.005  0.00  0.00    +0.000 A 
ATOM      8  C   UNL     1       6.586  11.927  -1.182  0.00  0.00    +0.000 A 
ATOM      9  C   UNL     1       5.444  11.147  -1.174  0.00  0.00    +0.000 A 
ATOM     10  C   UNL     1       4.768  10.923   0.010  0.00  0.00    +0.000 A 
ATOM     11  C   UNL     1       5.231  11.483   1.187  0.00  0.00    +0.000 A 
BRANCH   9  12
ATOM     12  C   UNL     1       4.937  10.541  -2.458  0.00  0.00    +0.000 C 
BRANCH  12  13
ATOM     13  N   UNL     1       3.830  11.355  -2.978  0.00  0.00    +0.000 N 
ATOM     14  C   UNL     1       4.222  12.783  -3.084  0.00  0.00    +0.000 C 
ATOM     15  C   UNL     1       3.199  13.358  -4.095  0.00  0.00    +0.000 C 
ATOM     16  C   UNL     1       3.026  12.202  -5.107  0.00  0.00    +0.000 C 
ATOM     17  C   UNL     1       3.463  10.935  -4.348  0.00  0.00    +0.000 C 
ATOM     18  H   UNL     1       3.045  11.227  -2.323  0.00  0.00    +0.000 HD
ENDBRANCH  12  13
ENDBRANCH   9  12
ENDBRANCH   5  10
ENDBRANCH   1   5
BRANCH   2  19
ATOM     19  C   UNL     1       3.330   6.250   0.001  0.00  0.00    +0.000 C 
BRANCH  19  20
ATOM     20  O   UNL     1       2.149   5.444   0.009  0.00  0.00    +0.000 OA
BRANCH  20  21
ATOM     21  C   UNL     1       2.405   4.039  -0.001  0.00  0.00    +0.000 C 
BRANCH  21  22
ATOM     22  C   UNL     1       1.097   3.290   0.009  0.00  0.00    +0.000 A 
ATOM     23  N   UNL     1       1.132   1.932   0.002  0.00  0.00    +0.000 N 
ATOM     24  C   UNL     1      -0.014   1.213   0.009  0.00  0.00    +0.000 A 
ATOM     25  O   UNL     1       0.002  -0.004   0.002  0.00  0.00    +0.000 OA
ATOM     26  C   UNL     1      -1.281   1.960   0.019  0.00  0.00    +0.000 A 
ATOM     27  C   UNL     1      -2.517   1.315   0.033  0.00  0.00    +0.000 A 
ATOM     28  C   UNL     1      -3.673   2.064   0.048  0.00  0.00    +0.000 A 
ATOM     29  C   UNL     1      -3.615   3.452   0.055  0.00  0.00    +0.000 A 
ATOM     30  C   UNL     1      -2.405   4.108   0.047  0.00  0.00    +0.000 A 
ATOM     31  C   UNL     1      -1.219   3.371   0.032  0.00  0.00    +0.000 A 
ATOM     32  N   UNL     1      -0.005   3.976   0.023  0.00  0.00    +0.000 NA
ATOM     33  H   UNL     1       2.040   1.445  -0.009  0.00  0.00    +0.000 HD
ENDBRANCH  21  22
ENDBRANCH  20  21
ENDBRANCH  19  20
ENDBRANCH   2  19
TORSDOF 8
ENDMDL
MODEL      680
REMARK  Name = ZINC27367243
REMARK  9 active torsions:
REMARK  status: ('A' for Active; 'I' for Inactive)
REMARK    1  A    between atoms: C_1  and  S_2
REMARK    2  A    between atoms: S_2  and  N_5
REMARK    3  A    between atoms: N_5  and  C_6
REMARK    4  A    between atoms: C_6  and  C_7
REMARK    5  A    between atoms: C_7  and  C_8
REMARK    6  A    between atoms: C_8  and  N_9
REMARK    7  A    between atoms: N_12  and  C_13
REMARK    8  A    between atoms: N_21  and  C_22
REMARK    9  A    between atoms: C_22  and  C_23
REMARK                            x       y       z     vdW  Elec       q    Type
REMARK                         _______ _______ _______ _____ _____    ______ ____
ROOT
ATOM      1  C   UNL     1      -0.410   5.121   4.504  0.00  0.00    +0.000 C 
ATOM      2  C   UNL     1      -1.808   4.571   4.204  0.00  0.00    +0.000 C 
ATOM      3  C   UNL     1      -2.223   4.961   2.783  0.00  0.00    +0.000 C 
ATOM      4  C   UNL     1      -1.378   4.179   1.769  0.00  0.00    +0.000 C 
ATOM      5  C   UNL     1       0.075   4.324   2.149  0.00  0.00    +0.000 A 
ATOM      6  C   UNL     1       0.505   4.746   3.366  0.00  0.00    +0.000 A 
ATOM      7  C   UNL     1       1.898   4.764   3.346  0.00  0.00    +0.000 A 
ATOM      8  N   UNL     1       2.294   4.361   2.163  0.00  0.00    +0.000 NA
ATOM      9  N   UNL     1       1.157   4.074   1.394  0.00  0.00    +0.000 N 
ENDROOT
BRANCH   1  13
ATOM     10  N   UNL     1       1.502   4.691   7.614  0.00  0.00    +0.000 N 
ATOM     11  C   UNL     1       1.035   5.214   6.464  0.00  0.00    +0.000 C 
ATOM     12  O   UNL     1       1.457   6.282   6.065  0.00  0.00    +0.000 OA
ATOM     13  N   UNL     1       0.098   4.553   5.755  0.00  0.00    +0.000 N 
ATOM     14  H   UNL     1       1.145   3.786   7.952  0.00  0.00    +0.000 HD
ATOM     15  H   UNL     1      -0.259   3.648   6.092  0.00  0.00    +0.000 HD
BRANCH  10  16
ATOM     16  C   UNL     1       2.520   5.409   8.385  0.00  0.00    +0.000 C 
BRANCH  16  17
ATOM     17  C   UNL     1       2.874   4.605   9.637  0.00  0.00    +0.000 C 
BRANCH  17  18
ATOM     18  C   UNL     1       3.937   5.355  10.442  0.00  0.00    +0.000 C 
BRANCH  18  19
ATOM     19  N   UNL     1       4.276   4.585  11.641  0.00  0.00    +0.000 NA
ATOM     20  H   UNL     1       3.665   3.814  11.948  0.00  0.00    +0.000 HD
BRANCH  19  22
ATOM     21  C   UNL     1       5.347   6.617  13.157  0.00  0.00    +0.000 C 
ATOM     22  S   UNL     1       5.642   4.952  12.502  0.00  0.00    +0.000 S 
ATOM     23  O   UNL     1       5.667   4.006  13.563  0.00  0.00    +0.000 OA
ATOM     24  O   UNL     1       6.683   4.983  11.536  0.00  0.00    +0.000 OA
ENDBRANCH  19  22
ENDBRANCH  18  19
ENDBRANCH  17  18
ENDBRANCH  16  17
ENDBRANCH  10  16
ENDBRANCH   1  13
BRANCH   9  25
ATOM     25  C   UNL     1       1.151   3.592   0.010  0.00  0.00    +0.000 C 
BRANCH  25  26
ATOM     26  C   UNL     1       1.171   2.086   0.002  0.00  0.00    +0.000 A 
ATOM     27  C   UNL     1      -0.017   1.378   0.010  0.00  0.00    +0.000 A 
ATOM     28  C   UNL     1       0.002  -0.004   0.002  0.00  0.00    +0.000 A 
ATOM     29  C   UNL     1       1.208  -0.679  -0.013  0.00  0.00    +0.000 A 
ATOM     30  C   UNL     1       2.396   0.029  -0.022  0.00  0.00    +0.000 A 
ATOM     31  C   UNL     1       2.377   1.411  -0.015  0.00  0.00    +0.000 A 
ENDBRANCH  25  26
ENDBRANCH   9  25
TORSDOF 8
ENDMDL
MODEL      681
REMARK  Name = ZINC14185417
REMARK  11 active torsions:
REMARK  status: ('A' for Active; 'I' for Inactive)
REMARK    1  A    between atoms: C_1  and  C_2
REMARK    2  A    between atoms: C_2  and  C_3
REMARK    3  A    between atoms: C_3  and  C_24
REMARK    4  A    between atoms: N_6  and  C_10
REMARK    5  A    between atoms: C_10  and  C_11
REMARK    6  A    between atoms: N_13  and  C_14
REMARK    7  A    between atoms: C_14  and  C_15
REMARK    8  A    between atoms: C_15  and  C_16
REMARK    9  A    between atoms: C_15  and  N_30
REMARK   10  A    between atoms: C_22  and  N_30
REMARK   11  A    between atoms: C_23  and  N_30
REMARK                            x       y       z     vdW  Elec       q    Type
REMARK                         _______ _______ _______ _____ _____    ______ ____
ROOT
ATOM      1  C   UNL     1      -3.260   2.292  -3.362  0.00  0.00    +0.000 C 
ENDROOT
BRANCH   1   5
ATOM      2  C   UNL     1      -0.712   2.803  -0.708  0.00  0.00    +0.000 C 
ATOM      3  C   UNL     1      -1.154   2.836  -2.157  0.00  0.00    +0.000 C 
ATOM      4  O   UNL     1      -0.493   3.171  -3.117  0.00  0.00    +0.000 OA
ATOM      5  N   UNL     1      -2.434   2.415  -2.158  0.00  0.00    +0.000 N 
ATOM      6  C   UNL     1      -2.858   2.123  -0.923  0.00  0.00    +0.000 C 
ATOM      7  O   UNL     1      -3.978   1.724  -0.670  0.00  0.00    +0.000 OA
ATOM      8  N   UNL     1      -1.907   2.321   0.007  0.00  0.00    +0.000 NA
BRANCH   2   9
ATOM      9  C   UNL     1       0.436   1.845  -0.525  0.00  0.00    +0.000 A 
ATOM     10  C   UNL     1       1.738   2.294  -0.648  0.00  0.00    +0.000 A 
ATOM     11  C   UNL     1       2.791   1.414  -0.488  0.00  0.00    +0.000 A 
ATOM     12  C   UNL     1       2.544   0.084  -0.203  0.00  0.00    +0.000 A 
ATOM     13  C   UNL     1       1.242  -0.365  -0.079  0.00  0.00    +0.000 A 
ATOM     14  C   UNL     1       0.189   0.515  -0.240  0.00  0.00    +0.000 A 
ENDBRANCH   2   9
BRANCH   2  16
ATOM     15  C   UNL     1      -1.542   5.126  -0.310  0.00  0.00    +0.000 C 
ATOM     16  C   UNL     1      -0.324   4.204  -0.231  0.00  0.00    +0.000 C 
ENDBRANCH   2  16
ENDBRANCH   1   5
BRANCH   1  17
ATOM     17  C   UNL     1      -3.102   0.910  -3.941  0.00  0.00    +0.000 C 
ATOM     18  O   UNL     1      -2.372   0.106  -3.401  0.00  0.00    +0.000 OA
ATOM     19  N   UNL     1      -3.772   0.567  -5.059  0.00  0.00    +0.000 N 
ATOM     20  H   UNL     1      -4.392   1.250  -5.517  0.00  0.00    +0.000 HD
BRANCH  19  21
ATOM     21  C   UNL     1      -3.619  -0.777  -5.621  0.00  0.00    +0.000 C 
BRANCH  21  22
ATOM     22  C   UNL     1      -4.595  -0.957  -6.785  0.00  0.00    +0.000 C 
BRANCH  22  23
ATOM     23  C   UNL     1      -4.395  -2.317  -7.403  0.00  0.00    +0.000 A 
ATOM     24  C   UNL     1      -4.866  -3.446  -6.759  0.00  0.00    +0.000 A 
ATOM     25  C   UNL     1      -4.685  -4.692  -7.328  0.00  0.00    +0.000 A 
ATOM     26  C   UNL     1      -4.026  -4.811  -8.538  0.00  0.00    +0.000 A 
ATOM     27  C   UNL     1      -3.550  -3.683  -9.179  0.00  0.00    +0.000 A 
ATOM     28  C   UNL     1      -3.735  -2.436  -8.612  0.00  0.00    +0.000 A 
ENDBRANCH  22  23
BRANCH  22  31
ATOM     29  C   UNL     1      -6.064  -1.262  -4.885  0.00  0.00    +0.000 C 
ATOM     30  C   UNL     1      -6.485   0.523  -6.465  0.00  0.00    +0.000 C 
ATOM     31  N   UNL     1      -5.990  -0.861  -6.305  0.00  0.00    +0.000 N 
ATOM     32  H   UNL     1      -6.580  -1.494  -6.863  0.00  0.00    +0.000 HD
ENDBRANCH  22  31
ENDBRANCH  21  22
ENDBRANCH  19  21
ENDBRANCH   1  17
TORSDOF 8
ENDMDL
MODEL      682
REMARK  Name = ZINC07739565
REMARK  11 active torsions:
REMARK  status: ('A' for Active; 'I' for Inactive)
REMARK    1  A    between atoms: C_1  and  C_2
REMARK    2  A    between atoms: C_2  and  N_3
REMARK    3  A    between atoms: N_3  and  C_4
REMARK    4  A    between atoms: N_3  and  S_6
REMARK    5  A    between atoms: C_4  and  C_5
REMARK    6  A    between atoms: S_6  and  C_9
REMARK    7  A    between atoms: C_11  and  N_16
REMARK    8  A    between atoms: C_14  and  C_15
REMARK    9  A    between atoms: C_17  and  C_19
REMARK   10  A    between atoms: C_19  and  N_20
REMARK   11  A    between atoms: C_24  and  C_26
REMARK                            x       y       z     vdW  Elec       q    Type
REMARK                         _______ _______ _______ _____ _____    ______ ____
ROOT
ATOM      1  N   UNL     1      -6.398  -0.313   1.484  0.00  0.00    +0.000 N 
ATOM      2  C   UNL     1      -5.733   0.773   1.043  0.00  0.00    +0.000 C 
ATOM      3  O   UNL     1      -5.471   1.677   1.809  0.00  0.00    +0.000 OA
ATOM      4  H   UNL     1      -6.688  -1.044   0.819  0.00  0.00    +0.000 HD
ENDROOT
BRANCH   1   7
ATOM      5  C   UNL     1      -8.078  -1.330   4.593  0.00  0.00    +0.000 A 
ATOM      6  C   UNL     1      -7.789  -1.199   3.248  0.00  0.00    +0.000 A 
ATOM      7  C   UNL     1      -6.693  -0.448   2.845  0.00  0.00    +0.000 A 
ATOM      8  C   UNL     1      -5.888   0.166   3.796  0.00  0.00    +0.000 A 
ATOM      9  C   UNL     1      -6.186   0.036   5.138  0.00  0.00    +0.000 A 
ATOM     10  C   UNL     1      -7.278  -0.713   5.536  0.00  0.00    +0.000 A 
ATOM     11  C   UNL     1      -7.596  -0.857   7.002  0.00  0.00    +0.000 C 
BRANCH   5  12
ATOM     12  S   UNL     1      -9.468  -2.284   5.105  0.00  0.00    +0.000 S 
ATOM     13  O   UNL     1     -10.184  -1.488   6.040  0.00  0.00    +0.000 OA
ATOM     14  O   UNL     1     -10.067  -2.796   3.923  0.00  0.00    +0.000 OA
BRANCH  12  15
ATOM     15  N   UNL     1      -8.885  -3.588   5.943  0.00  0.00    +0.000 NA
BRANCH  15  16
ATOM     16  C   UNL     1      -8.394  -4.763   5.220  0.00  0.00    +0.000 C 
ATOM     17  C   UNL     1      -6.877  -4.659   5.046  0.00  0.00    +0.000 C 
ENDBRANCH  15  16
BRANCH  15  19
ATOM     18  C   UNL     1     -10.051  -4.360   7.950  0.00  0.00    +0.000 C 
ATOM     19  C   UNL     1      -8.860  -3.566   7.408  0.00  0.00    +0.000 C 
ENDBRANCH  15  19
ENDBRANCH  12  15
ENDBRANCH   5  12
ENDBRANCH   1   7
BRANCH   2  20
ATOM     20  C   UNL     1      -5.315   0.866  -0.402  0.00  0.00    +0.000 C 
BRANCH  20  21
ATOM     21  N   UNL     1      -4.614   2.132  -0.628  0.00  0.00    +0.000 N 
ATOM     22  C   UNL     1      -5.310   3.195  -0.984  0.00  0.00    +0.000 A 
ATOM     23  C   UNL     1      -4.692   4.412  -1.207  0.00  0.00    +0.000 A 
ATOM     24  C   UNL     1      -3.320   4.514  -1.049  0.00  0.00    +0.000 A 
ATOM     25  C   UNL     1      -2.609   3.367  -0.676  0.00  0.00    +0.000 A 
ATOM     26  C   UNL     1      -3.308   2.178  -0.469  0.00  0.00    +0.000 A 
BRANCH  25  27
ATOM     27  C   UNL     1      -1.142   3.418  -0.499  0.00  0.00    +0.000 C 
ATOM     28  O   UNL     1      -0.535   2.417  -0.170  0.00  0.00    +0.000 OA
ATOM     29  N   UNL     1      -0.477   4.572  -0.707  0.00  0.00    +0.000 N 
ATOM     30  H   UNL     1      -0.991   5.418  -0.990  0.00  0.00    +0.000 HD
ATOM     31  H   UNL     1       0.545   4.607  -0.584  0.00  0.00    +0.000 HD
ENDBRANCH  25  27
ENDBRANCH  20  21
ENDBRANCH   2  20
TORSDOF 8
ENDMDL
MODEL      683
REMARK  Name = ZINC31172347
REMARK  10 active torsions:
REMARK  status: ('A' for Active; 'I' for Inactive)
REMARK    1  A    between atoms: C_1  and  N_2
REMARK    2  A    between atoms: N_2  and  C_3
REMARK    3  A    between atoms: N_2  and  C_18
REMARK    4  A    between atoms: C_3  and  C_4
REMARK    5  A    between atoms: C_4  and  C_5
REMARK    6  A    between atoms: N_7  and  C_8
REMARK    7  A    between atoms: C_18  and  C_19
REMARK    8  A    between atoms: N_21  and  C_22
REMARK    9  A    between atoms: C_25  and  O_28
REMARK   10  A    between atoms: O_28  and  C_29
REMARK                            x       y       z     vdW  Elec       q    Type
REMARK                         _______ _______ _______ _____ _____    ______ ____
ROOT
ATOM      1  C   UNL     1       5.945   2.117  -0.139  0.00  0.00    +0.000 C 
ENDROOT
BRANCH   1   2
ATOM      2  C   UNL     1       7.277   1.427  -0.282  0.00  0.00    +0.000 C 
ATOM      3  O   UNL     1       7.378   0.244  -0.031  0.00  0.00    +0.000 OA
ATOM      4  N   UNL     1       8.357   2.123  -0.687  0.00  0.00    +0.000 N 
ATOM      5  H   UNL     1       8.291   3.142  -0.825  0.00  0.00    +0.000 HD
BRANCH   4   6
ATOM      6  C   UNL     1       9.570   1.462  -0.922  0.00  0.00    +0.000 A 
ATOM      7  C   UNL     1      10.774   2.107  -0.662  0.00  0.00    +0.000 A 
ATOM      8  C   UNL     1      11.972   1.459  -0.886  0.00  0.00    +0.000 A 
ATOM      9  C   UNL     1      11.976   0.164  -1.383  0.00  0.00    +0.000 A 
ATOM     10  C   UNL     1      10.768  -0.484  -1.651  0.00  0.00    +0.000 A 
ATOM     11  C   UNL     1       9.567   0.167  -1.419  0.00  0.00    +0.000 A 
ATOM     12  N   UNL     1      11.089  -1.752  -2.132  0.00  0.00    +0.000 N 
ATOM     13  C   UNL     1      12.430  -1.869  -2.156  0.00  0.00    +0.000 A 
ATOM     14  O   UNL     1      13.040  -2.856  -2.524  0.00  0.00    +0.000 OA
ATOM     15  N   UNL     1      12.994  -0.731  -1.710  0.00  0.00    +0.000 N 
ATOM     16  H   UNL     1      10.416  -2.475  -2.420  0.00  0.00    +0.000 HD
ATOM     17  H   UNL     1      14.005  -0.551  -1.626  0.00  0.00    +0.000 HD
ENDBRANCH   4   6
ENDBRANCH   1   2
BRANCH   1  18
ATOM     18  C   UNL     1       4.896   1.108   0.332  0.00  0.00    +0.000 C 
BRANCH  18  20
ATOM     19  C   UNL     1       3.633   2.777   1.549  0.00  0.00    +0.000 C 
ATOM     20  N   UNL     1       3.598   1.781   0.470  0.00  0.00    +0.000 NA
BRANCH  20  21
ATOM     21  C   UNL     1       2.520   0.806   0.689  0.00  0.00    +0.000 C 
BRANCH  21  22
ATOM     22  C   UNL     1       1.186   1.499   0.582  0.00  0.00    +0.000 C 
ATOM     23  O   UNL     1       1.138   2.688   0.346  0.00  0.00    +0.000 OA
ATOM     24  N   UNL     1       0.048   0.798   0.748  0.00  0.00    +0.000 N 
ATOM     25  H   UNL     1       0.086  -0.222   0.882  0.00  0.00    +0.000 HD
BRANCH  24  26
ATOM     26  C   UNL     1      -1.189   1.457   0.738  0.00  0.00    +0.000 A 
ATOM     27  C   UNL     1      -2.217   1.017   1.561  0.00  0.00    +0.000 A 
ATOM     28  C   UNL     1      -3.434   1.670   1.554  0.00  0.00    +0.000 A 
ATOM     29  C   UNL     1      -3.632   2.759   0.718  0.00  0.00    +0.000 A 
ATOM     30  C   UNL     1      -2.607   3.197  -0.108  0.00  0.00    +0.000 A 
ATOM     31  C   UNL     1      -1.388   2.548  -0.098  0.00  0.00    +0.000 A 
BRANCH  29  32
ATOM     32  O   UNL     1      -4.832   3.399   0.708  0.00  0.00    +0.000 OA
ATOM     33  C   UNL     1      -5.843   2.895   1.583  0.00  0.00    +0.000 C 
ENDBRANCH  29  32
ENDBRANCH  24  26
ENDBRANCH  21  22
ENDBRANCH  20  21
ENDBRANCH  18  20
ENDBRANCH   1  18
TORSDOF 8
ENDMDL
MODEL      684
REMARK  Name = ZINC21760808
REMARK  8 active torsions:
REMARK  status: ('A' for Active; 'I' for Inactive)
REMARK    1  A    between atoms: C_7  and  N_11
REMARK    2  A    between atoms: C_12  and  C_14
REMARK    3  A    between atoms: C_14  and  O_15
REMARK    4  A    between atoms: O_15  and  C_16
REMARK    5  A    between atoms: C_16  and  C_18
REMARK    6  A    between atoms: C_18  and  C_19
REMARK    7  A    between atoms: C_19  and  C_20
REMARK    8  A    between atoms: C_19  and  N_25
REMARK                            x       y       z     vdW  Elec       q    Type
REMARK                         _______ _______ _______ _____ _____    ______ ____
ROOT
ATOM      1  O   UNL     1       5.170   0.673  -2.635  0.00  0.00    +0.000 OA
ENDROOT
BRANCH   1   2
ATOM      2  C   UNL     1       4.489   0.722  -1.480  0.00  0.00    +0.000 C 
ATOM      3  O   UNL     1       4.976   0.270  -0.471  0.00  0.00    +0.000 OA
BRANCH   2   4
ATOM      4  C   UNL     1       3.116   1.343  -1.441  0.00  0.00    +0.000 C 
BRANCH   4   5
ATOM      5  C   UNL     1       2.565   1.272  -0.015  0.00  0.00    +0.000 C 
BRANCH   5   6
ATOM      6  N   UNL     1       3.389   2.099   0.869  0.00  0.00    +0.000 N 
ATOM      7  C   UNL     1       3.514   3.420   0.634  0.00  0.00    +0.000 C 
ATOM      8  O   UNL     1       2.942   3.925  -0.312  0.00  0.00    +0.000 OA
ATOM      9  N   UNL     1       4.272   4.181   1.447  0.00  0.00    +0.000 N 
ATOM     10  H   UNL     1       3.874   1.671   1.671  0.00  0.00    +0.000 HD
ATOM     11  H   UNL     1       4.757   3.753   2.249  0.00  0.00    +0.000 HD
ATOM     12  H   UNL     1       4.367   5.191   1.268  0.00  0.00    +0.000 HD
ENDBRANCH   5   6
BRANCH   5  13
ATOM     13  C   UNL     1       1.146   1.780   0.001  0.00  0.00    +0.000 A 
ATOM     14  C   UNL     1      -0.013   1.076   0.008  0.00  0.00    +0.000 A 
ATOM     15  C   UNL     1      -1.213   1.761   0.017  0.00  0.00    +0.000 A 
ATOM     16  C   UNL     1      -1.196   3.116   0.030  0.00  0.00    +0.000 A 
ATOM     17  S   UNL     1       0.555   3.464   0.015  0.00  0.00    +0.000 S 
ENDBRANCH   5  13
ENDBRANCH   4   5
ENDBRANCH   2   4
ENDBRANCH   1   2
BRANCH   1  18
ATOM     18  C   UNL     1       6.486   0.061  -2.599  0.00  0.00    +0.000 C 
BRANCH  18  20
ATOM     19  N   UNL     1       8.322  -0.421  -4.185  0.00  0.00    +0.000 N 
ATOM     20  C   UNL     1       7.095   0.095  -3.977  0.00  0.00    +0.000 C 
ATOM     21  O   UNL     1       6.479   0.587  -4.900  0.00  0.00    +0.000 OA
ATOM     22  H   UNL     1       8.845  -0.838  -3.402  0.00  0.00    +0.000 HD
BRANCH  19  29
ATOM     23  C   UNL     1       6.632  -3.034  -6.936  0.00  0.00    +0.000 A 
ATOM     24  C   UNL     1       7.491  -3.759  -7.742  0.00  0.00    +0.000 A 
ATOM     25  C   UNL     1       8.820  -3.398  -7.833  0.00  0.00    +0.000 A 
ATOM     26  C   UNL     1       9.299  -2.305  -7.117  0.00  0.00    +0.000 A 
ATOM     27  C   UNL     1       8.437  -1.580  -6.314  0.00  0.00    +0.000 A 
ATOM     28  C   UNL     1       7.104  -1.948  -6.226  0.00  0.00    +0.000 A 
ATOM     29  C   UNL     1       8.914  -0.387  -5.525  0.00  0.00    +0.000 C 
ATOM     30  C   UNL     1      10.440  -0.422  -5.409  0.00  0.00    +0.000 C 
ATOM     31  C   UNL     1      11.023  -0.684  -6.804  0.00  0.00    +0.000 C 
ATOM     32  O   UNL     1      10.615  -1.986  -7.226  0.00  0.00    +0.000 OA
ENDBRANCH  19  29
ENDBRANCH  18  20
ENDBRANCH   1  18
TORSDOF 8
ENDMDL
MODEL      685
REMARK  Name = ZINC26126686
REMARK  11 active torsions:
REMARK  status: ('A' for Active; 'I' for Inactive)
REMARK    1  A    between atoms: C_1  and  C_2
REMARK    2  A    between atoms: C_2  and  C_3
REMARK    3  A    between atoms: C_2  and  C_5
REMARK    4  A    between atoms: C_2  and  N_8
REMARK    5  A    between atoms: C_9  and  C_11
REMARK    6  A    between atoms: C_11  and  S_12
REMARK    7  A    between atoms: S_12  and  C_13
REMARK    8  A    between atoms: C_16  and  C_19
REMARK    9  A    between atoms: N_17  and  N_18
REMARK   10  A    between atoms: C_19  and  O_20
REMARK   11  A    between atoms: O_20  and  C_21
REMARK                            x       y       z     vdW  Elec       q    Type
REMARK                         _______ _______ _______ _____ _____    ______ ____
ROOT
ATOM      1  C   UNL     1       6.025   2.340  -2.281  0.00  0.00    +0.000 A 
ATOM      2  N   UNL     1       6.390   3.095  -1.270  0.00  0.00    +0.000 NA
ATOM      3  N   UNL     1       7.614   3.458  -1.416  0.00  0.00    +0.000 NA
ATOM      4  C   UNL     1       8.097   2.969  -2.523  0.00  0.00    +0.000 A 
ATOM      5  N   UNL     1       7.102   2.239  -3.114  0.00  0.00    +0.000 N 
ENDROOT
BRANCH   5   6
ATOM      6  N   UNL     1       7.172   1.552  -4.292  0.00  0.00    +0.000 N 
ATOM      7  H   UNL     1       6.305   1.064  -4.562  0.00  0.00    +0.000 HD
ATOM      8  H   UNL     1       8.016   1.512  -4.880  0.00  0.00    +0.000 HD
ENDBRANCH   5   6
BRANCH   4   9
ATOM      9  C   UNL     1       9.492   3.169  -3.054  0.00  0.00    +0.000 C 
BRANCH   9  10
ATOM     10  O   UNL     1       9.523   4.330  -3.886  0.00  0.00    +0.000 OA
BRANCH  10  11
ATOM     11  C   UNL     1      10.717   4.655  -4.449  0.00  0.00    +0.000 A 
ATOM     12  C   UNL     1      11.837   3.875  -4.200  0.00  0.00    +0.000 A 
ATOM     13  C   UNL     1      13.048   4.204  -4.777  0.00  0.00    +0.000 A 
ATOM     14  C   UNL     1      13.148   5.316  -5.594  0.00  0.00    +0.000 A 
ATOM     15  C   UNL     1      12.033   6.099  -5.839  0.00  0.00    +0.000 A 
ATOM     16  C   UNL     1      10.818   5.770  -5.268  0.00  0.00    +0.000 A 
ATOM     17 CL   UNL     1      14.672   5.731  -6.313  0.00  0.00    +0.000 Cl
ENDBRANCH  10  11
ENDBRANCH   9  10
ENDBRANCH   4   9
BRANCH   1  18
ATOM     18  S   UNL     1       4.442   1.604  -2.521  0.00  0.00    +0.000 S 
BRANCH  18  19
ATOM     19  C   UNL     1       3.595   2.188  -1.031  0.00  0.00    +0.000 C 
BRANCH  19  21
ATOM     20  N   UNL     1       1.357   1.975  -0.000  0.00  0.00    +0.000 N 
ATOM     21  C   UNL     1       2.181   1.666  -1.021  0.00  0.00    +0.000 C 
ATOM     22  O   UNL     1       1.785   0.968  -1.930  0.00  0.00    +0.000 OA
ATOM     23  H   UNL     1       1.693   2.567   0.772  0.00  0.00    +0.000 HD
BRANCH  20  25
ATOM     24  C   UNL     1      -0.758   1.975  -1.229  0.00  0.00    +0.000 C 
ATOM     25  C   UNL     1      -0.018   1.468   0.010  0.00  0.00    +0.000 C 
BRANCH  25  26
ATOM     26  C   UNL     1      -0.734   1.961   1.269  0.00  0.00    +0.000 C 
ATOM     27  C   UNL     1      -1.192   0.908   2.280  0.00  0.00    +0.000 C 
ATOM     28  C   UNL     1      -2.222   1.633   1.410  0.00  0.00    +0.000 C 
ENDBRANCH  25  26
BRANCH  25  29
ATOM     29  C   UNL     1       0.002  -0.004   0.002  0.00  0.00    +0.000 C 
ATOM     30  N   UNL     1       0.018  -1.140  -0.004  0.00  0.00    +0.000 NA
ENDBRANCH  25  29
ENDBRANCH  20  25
ENDBRANCH  19  21
ENDBRANCH  18  19
ENDBRANCH   1  18
TORSDOF 10
ENDMDL
MODEL      686
REMARK  Name = ZINC29656004
REMARK  9 active torsions:
REMARK  status: ('A' for Active; 'I' for Inactive)
REMARK    1  A    between atoms: C_1  and  N_2
REMARK    2  A    between atoms: N_2  and  C_3
REMARK    3  A    between atoms: N_2  and  C_4
REMARK    4  A    between atoms: C_4  and  C_5
REMARK    5  A    between atoms: C_4  and  C_24
REMARK    6  A    between atoms: C_5  and  N_6
REMARK    7  A    between atoms: N_9  and  N_10
REMARK    8  A    between atoms: C_11  and  C_13
REMARK    9  A    between atoms: C_16  and  N_19
REMARK                            x       y       z     vdW  Elec       q    Type
REMARK                         _______ _______ _______ _____ _____    ______ ____
ROOT
ATOM      1  N   UNL     1       3.277  -3.266   1.718  0.00  0.00    +0.000 N 
ATOM      2  C   UNL     1       3.493  -3.732   2.963  0.00  0.00    +0.000 C 
ATOM      3  O   UNL     1       3.132  -3.084   3.926  0.00  0.00    +0.000 OA
ATOM      4  N   UNL     1       4.110  -4.917   3.142  0.00  0.00    +0.000 N 
ATOM      5  H   UNL     1       3.583  -3.815   0.902  0.00  0.00    +0.000 HD
ATOM      6  H   UNL     1       4.276  -5.274   4.094  0.00  0.00    +0.000 HD
ENDROOT
BRANCH   4   7
ATOM      7  N   UNL     1       4.526  -5.664   2.032  0.00  0.00    +0.000 N 
ATOM      8  C   UNL     1       5.143  -6.849   2.210  0.00  0.00    +0.000 C 
ATOM      9  O   UNL     1       5.339  -7.270   3.334  0.00  0.00    +0.000 OA
ATOM     10  H   UNL     1       4.361  -5.308   1.080  0.00  0.00    +0.000 HD
BRANCH   8  11
ATOM     11  C   UNL     1       5.582  -7.637   1.040  0.00  0.00    +0.000 A 
ATOM     12  C   UNL     1       5.354  -7.157  -0.252  0.00  0.00    +0.000 A 
ATOM     13  C   UNL     1       5.769  -7.892  -1.341  0.00  0.00    +0.000 A 
ATOM     14  C   UNL     1       6.405  -9.114  -1.155  0.00  0.00    +0.000 A 
ATOM     15  C   UNL     1       6.630  -9.597   0.129  0.00  0.00    +0.000 A 
ATOM     16  C   UNL     1       6.222  -8.865   1.223  0.00  0.00    +0.000 A 
BRANCH  14  17
ATOM     17  N   UNL     1       6.821  -9.861  -2.264  0.00  0.00    +0.000 N 
ATOM     18  C   UNL     1       6.681  -9.539  -3.569  0.00  0.00    +0.000 A 
ATOM     19  N   UNL     1       7.206 -10.511  -4.267  0.00  0.00    +0.000 NA
ATOM     20  N   UNL     1       7.668 -11.426  -3.493  0.00  0.00    +0.000 NA
ATOM     21  N   UNL     1       7.479 -11.103  -2.259  0.00  0.00    +0.000 NA
ENDBRANCH  14  17
ENDBRANCH   8  11
ENDBRANCH   4   7
BRANCH   1  22
ATOM     22  C   UNL     1       2.606  -1.978   1.524  0.00  0.00    +0.000 C 
BRANCH  22  23
ATOM     23  C   UNL     1       2.586  -1.633   0.033  0.00  0.00    +0.000 C 
BRANCH  23  24
ATOM     24  C   UNL     1       1.820  -0.352  -0.175  0.00  0.00    +0.000 A 
ATOM     25  C   UNL     1       2.255   0.831  -0.674  0.00  0.00    +0.000 A 
ATOM     26  C   UNL     1       1.364   1.884  -0.775  0.00  0.00    +0.000 A 
ATOM     27  C   UNL     1       0.083   1.702  -0.372  0.00  0.00    +0.000 A 
ATOM     28  S   UNL     1       0.105   0.002   0.172  0.00  0.00    +0.000 S 
ENDBRANCH  23  24
BRANCH  23  30
ATOM     29  C   UNL     1       0.540  -2.887  -0.288  0.00  0.00    +0.000 C 
ATOM     30  N   UNL     1       1.936  -2.719  -0.712  0.00  0.00    +0.000 N 
ATOM     31  C   UNL     1       2.022  -2.487  -2.160  0.00  0.00    +0.000 C 
ATOM     32  H   UNL     1       2.439  -3.592  -0.501  0.00  0.00    +0.000 HD
ENDBRANCH  23  30
ENDBRANCH  22  23
ENDBRANCH   1  22
TORSDOF 7
ENDMDL
MODEL      687
REMARK  Name = ZINC23894374
REMARK  10 active torsions:
REMARK  status: ('A' for Active; 'I' for Inactive)
REMARK    1  A    between atoms: C_1  and  C_2
REMARK    2  A    between atoms: C_3  and  C_26
REMARK    3  A    between atoms: C_4  and  C_25
REMARK    4  A    between atoms: C_6  and  C_7
REMARK    5  A    between atoms: N_9  and  C_10
REMARK    6  A    between atoms: C_10  and  C_11
REMARK    7  A    between atoms: C_11  and  C_12
REMARK    8  A    between atoms: C_12  and  N_13
REMARK    9  A    between atoms: C_26  and  O_28
REMARK   10  A    between atoms: O_28  and  C_29
REMARK                            x       y       z     vdW  Elec       q    Type
REMARK                         _______ _______ _______ _____ _____    ______ ____
ROOT
ATOM      1  C   UNL     1      -1.187   1.624   0.017  0.00  0.00    +0.000 C 
ATOM      2  O   UNL     1      -1.204   2.840   0.023  0.00  0.00    +0.000 OA
ATOM      3  N   UNL     1      -0.011   0.966   0.007  0.00  0.00    +0.000 N 
ATOM      4  H   UNL     1       0.003  -0.064   0.006  0.00  0.00    +0.000 HD
ENDROOT
BRANCH   1  10
ATOM      5  C   UNL     1      -4.042   2.881   0.049  0.00  0.00    +0.000 C 
ATOM      6  C   UNL     1      -3.700   1.413   0.033  0.00  0.00    +0.000 A 
ATOM      7  C   UNL     1      -4.616   0.337   0.027  0.00  0.00    +0.000 A 
ATOM      8  C   UNL     1      -3.872  -0.829   0.017  0.00  0.00    +0.000 A 
ATOM      9  N   UNL     1      -2.570  -0.500   0.012  0.00  0.00    +0.000 N 
ATOM     10  C   UNL     1      -2.449   0.873   0.018  0.00  0.00    +0.000 A 
ATOM     11  C   UNL     1      -4.427  -2.230   0.013  0.00  0.00    +0.000 C 
ATOM     12  H   UNL     1      -1.786  -1.168   0.005  0.00  0.00    +0.000 HD
BRANCH   7  13
ATOM     13  C   UNL     1      -6.085   0.437   0.035  0.00  0.00    +0.000 C 
ATOM     14  O   UNL     1      -6.686   0.473   1.091  0.00  0.00    +0.000 OA
BRANCH  13  15
ATOM     15  O   UNL     1      -6.763   0.490  -1.128  0.00  0.00    +0.000 OA
ATOM     16  C   UNL     1      -8.209   0.588  -1.044  0.00  0.00    +0.000 C 
ENDBRANCH  13  15
ENDBRANCH   7  13
ENDBRANCH   1  10
BRANCH   3  17
ATOM     17  C   UNL     1       1.248   1.716  -0.001  0.00  0.00    +0.000 C 
BRANCH  17  18
ATOM     18  C   UNL     1       2.424   0.737  -0.017  0.00  0.00    +0.000 C 
BRANCH  18  19
ATOM     19  C   UNL     1       3.738   1.520  -0.025  0.00  0.00    +0.000 C 
BRANCH  19  20
ATOM     20  N   UNL     1       4.868   0.581  -0.041  0.00  0.00    +0.000 NA
ATOM     21  C   UNL     1       4.930  -0.188   1.209  0.00  0.00    +0.000 C 
ATOM     22  C   UNL     1       6.068  -1.208   1.121  0.00  0.00    +0.000 C 
ATOM     23  N   UNL     1       7.335  -0.505   0.875  0.00  0.00    +0.000 N 
ATOM     24  C   UNL     1       7.272   0.265  -0.376  0.00  0.00    +0.000 C 
ATOM     25  C   UNL     1       6.134   1.284  -0.288  0.00  0.00    +0.000 C 
ATOM     26  C   UNL     1       8.399  -1.390   0.860  0.00  0.00    +0.000 A 
ATOM     27  N   UNL     1       9.181  -1.442  -0.208  0.00  0.00    +0.000 NA
ATOM     28  C   UNL     1      10.210  -2.273  -0.252  0.00  0.00    +0.000 A 
ATOM     29  C   UNL     1      10.457  -3.101   0.831  0.00  0.00    +0.000 A 
ATOM     30  C   UNL     1       9.616  -3.024   1.930  0.00  0.00    +0.000 A 
ATOM     31  N   UNL     1       8.608  -2.168   1.912  0.00  0.00    +0.000 NA
ENDBRANCH  19  20
ENDBRANCH  18  19
ENDBRANCH  17  18
ENDBRANCH   3  17
TORSDOF 7
ENDMDL
MODEL      688
REMARK  Name = ZINC20119545
REMARK  12 active torsions:
REMARK  status: ('A' for Active; 'I' for Inactive)
REMARK    1  A    between atoms: C_1  and  C_2
REMARK    2  A    between atoms: C_4  and  N_20
REMARK    3  A    between atoms: C_10  and  C_11
REMARK    4  A    between atoms: N_13  and  C_14
REMARK    5  A    between atoms: C_14  and  C_15
REMARK    6  A    between atoms: C_15  and  C_16
REMARK    7  A    between atoms: C_15  and  C_17
REMARK    8  A    between atoms: C_15  and  C_18
REMARK    9  A    between atoms: C_18  and  O_19
REMARK   10  A    between atoms: N_20  and  C_21
REMARK   11  A    between atoms: C_21  and  C_22
REMARK   12  A    between atoms: C_22  and  N_23
REMARK                            x       y       z     vdW  Elec       q    Type
REMARK                         _______ _______ _______ _____ _____    ______ ____
ROOT
ATOM      1  C   UNL     1       3.784  -2.016   0.007  0.00  0.00    +0.000 C 
ATOM      2  C   UNL     1       3.568  -0.525   0.012  0.00  0.00    +0.000 A 
ATOM      3  C   UNL     1       2.307   0.004  -0.295  0.00  0.00    +0.000 A 
ATOM      4  C   UNL     1       1.102  -0.679  -0.638  0.00  0.00    +0.000 A 
ATOM      5  N   UNL     1       0.012   0.026  -0.893  0.00  0.00    +0.000 NA
ATOM      6  C   UNL     1      -0.002   1.346  -0.843  0.00  0.00    +0.000 A 
ATOM      7  N   UNL     1       1.079   2.035  -0.532  0.00  0.00    +0.000 NA
ATOM      8  C   UNL     1       2.210   1.416  -0.262  0.00  0.00    +0.000 A 
ATOM      9  S   UNL     1       3.849   1.927   0.187  0.00  0.00    +0.000 S 
ATOM     10  C   UNL     1       4.598   0.313   0.316  0.00  0.00    +0.000 A 
ENDROOT
BRANCH  10  11
ATOM     11  C   UNL     1       5.983  -0.029   0.663  0.00  0.00    +0.000 C 
ATOM     12  O   UNL     1       6.330  -1.194   0.705  0.00  0.00    +0.000 OA
ATOM     13  N   UNL     1       6.870   0.949   0.934  0.00  0.00    +0.000 N 
ATOM     14  H   UNL     1       6.576   1.935   0.899  0.00  0.00    +0.000 HD
BRANCH  13  15
ATOM     15  C   UNL     1       8.252   0.608   1.281  0.00  0.00    +0.000 C 
BRANCH  15  16
ATOM     16  C   UNL     1       9.044   1.891   1.540  0.00  0.00    +0.000 C 
ATOM     17  C   UNL     1       9.033   2.761   0.281  0.00  0.00    +0.000 C 
ATOM     18  C   UNL     1       8.403   2.661   2.697  0.00  0.00    +0.000 C 
BRANCH  16  19
ATOM     19  C   UNL     1      10.487   1.536   1.902  0.00  0.00    +0.000 C 
BRANCH  19  20
ATOM     20  O   UNL     1      11.227   2.734   2.144  0.00  0.00    +0.000 OA
ATOM     21  H   UNL     1      10.813   3.233   2.893  0.00  0.00    +0.000 HD
ENDBRANCH  19  20
ENDBRANCH  16  19
ENDBRANCH  15  16
ENDBRANCH  13  15
ENDBRANCH  10  11
BRANCH   4  22
ATOM     22  N   UNL     1       1.073  -2.057  -0.703  0.00  0.00    +0.000 N 
ATOM     23  H   UNL     1       1.945  -2.596  -0.599  0.00  0.00    +0.000 HD
BRANCH  22  24
ATOM     24  C   UNL     1      -0.197  -2.754  -0.920  0.00  0.00    +0.000 C 
BRANCH  24  25
ATOM     25  C   UNL     1       0.048  -4.264  -0.951  0.00  0.00    +0.000 C 
BRANCH  25  26
ATOM     26  N   UNL     1      -1.226  -4.962  -1.168  0.00  0.00    +0.000 NA
ATOM     27  C   UNL     1      -2.127  -4.784  -0.020  0.00  0.00    +0.000 C 
ATOM     28  C   UNL     1      -3.461  -5.476  -0.314  0.00  0.00    +0.000 C 
ATOM     29  O   UNL     1      -3.222  -6.856  -0.606  0.00  0.00    +0.000 OA
ATOM     30  C   UNL     1      -2.349  -7.066  -1.719  0.00  0.00    +0.000 C 
ATOM     31  C   UNL     1      -1.004  -6.390  -1.440  0.00  0.00    +0.000 C 
ENDBRANCH  25  26
ENDBRANCH  24  25
ENDBRANCH  22  24
ENDBRANCH   4  22
TORSDOF 9
ENDMDL
MODEL      689
REMARK  Name = ZINC13644937
REMARK  8 active torsions:
REMARK  status: ('A' for Active; 'I' for Inactive)
REMARK    1  A    between atoms: C_1  and  O_2
REMARK    2  A    between atoms: O_2  and  C_3
REMARK    3  A    between atoms: C_8  and  C_9
REMARK    4  A    between atoms: C_8  and  N_29
REMARK    5  A    between atoms: C_9  and  C_10
REMARK    6  A    between atoms: C_10  and  C_11
REMARK    7  A    between atoms: C_11  and  N_12
REMARK    8  A    between atoms: N_22  and  C_23
REMARK                            x       y       z     vdW  Elec       q    Type
REMARK                         _______ _______ _______ _____ _____    ______ ____
ROOT
ATOM      1  N   UNL     1      -1.256  -7.848  -3.645  0.00  0.00    +0.000 N 
ATOM      2  C   UNL     1      -0.233  -8.748  -3.705  0.00  0.00    +0.000 A 
ATOM      3  N   UNL     1      -0.693  -9.916  -4.049  0.00  0.00    +0.000 NA
ATOM      4  C   UNL     1      -2.033  -9.835  -4.230  0.00  0.00    +0.000 A 
ATOM      5  C   UNL     1      -2.409  -8.512  -3.967  0.00  0.00    +0.000 A 
ATOM      6  N   UNL     1      -3.694  -8.156  -4.067  0.00  0.00    +0.000 NA
ATOM      7  C   UNL     1      -4.617  -9.028  -4.405  0.00  0.00    +0.000 A 
ATOM      8  N   UNL     1      -4.314 -10.331  -4.670  0.00  0.00    +0.000 N 
ATOM      9  C   UNL     1      -3.036 -10.762  -4.598  0.00  0.00    +0.000 A 
ATOM     10  O   UNL     1      -2.755 -11.926  -4.831  0.00  0.00    +0.000 OA
ATOM     11  N   UNL     1      -5.924  -8.616  -4.495  0.00  0.00    +0.000 N 
ATOM     12  H   UNL     1      -5.064 -10.989  -4.927  0.00  0.00    +0.000 HD
ATOM     13  H   UNL     1      -6.670  -9.303  -4.672  0.00  0.00    +0.000 HD
ENDROOT
BRANCH  11  14
ATOM     14  C   UNL     1      -6.242  -7.262  -4.345  0.00  0.00    +0.000 A 
ATOM     15  C   UNL     1      -7.445  -6.891  -3.758  0.00  0.00    +0.000 A 
ATOM     16  C   UNL     1      -7.754  -5.553  -3.607  0.00  0.00    +0.000 A 
ATOM     17  C   UNL     1      -6.872  -4.584  -4.048  0.00  0.00    +0.000 A 
ATOM     18  C   UNL     1      -5.676  -4.950  -4.638  0.00  0.00    +0.000 A 
ATOM     19  C   UNL     1      -5.359  -6.286  -4.788  0.00  0.00    +0.000 A 
ENDBRANCH  11  14
BRANCH   1  20
ATOM     20  C   UNL     1      -1.143  -6.430  -3.293  0.00  0.00    +0.000 C 
BRANCH  20  21
ATOM     21  C   UNL     1      -1.434  -6.250  -1.802  0.00  0.00    +0.000 C 
BRANCH  21  22
ATOM     22  C   UNL     1      -1.316  -4.769  -1.434  0.00  0.00    +0.000 C 
BRANCH  22  23
ATOM     23  C   UNL     1      -1.606  -4.589   0.057  0.00  0.00    +0.000 C 
BRANCH  23  29
ATOM     24  C   UNL     1      -0.309  -0.820   1.604  0.00  0.00    +0.000 C 
ATOM     25  C   UNL     1      -0.269  -1.069   0.093  0.00  0.00    +0.000 C 
ATOM     26  C   UNL     1      -0.280  -2.576  -0.170  0.00  0.00    +0.000 C 
ATOM     27  C   UNL     1      -1.530  -2.982   1.866  0.00  0.00    +0.000 C 
ATOM     28  C   UNL     1      -1.556  -1.486   2.190  0.00  0.00    +0.000 C 
ATOM     29  N   UNL     1      -1.517  -3.154   0.398  0.00  0.00    +0.000 N 
ATOM     30  H   UNL     1      -2.329  -2.663  -0.003  0.00  0.00    +0.000 HD
BRANCH  24  32
ATOM     31  C   UNL     1       0.929   1.196   1.992  0.00  0.00    +0.000 C 
ATOM     32  O   UNL     1      -0.356   0.586   1.855  0.00  0.00    +0.000 OA
ENDBRANCH  24  32
ENDBRANCH  23  29
ENDBRANCH  22  23
ENDBRANCH  21  22
ENDBRANCH  20  21
ENDBRANCH   1  20
TORSDOF 7
ENDMDL
MODEL      690
REMARK  Name = ZINC25317963
REMARK  10 active torsions:
REMARK  status: ('A' for Active; 'I' for Inactive)
REMARK    1  A    between atoms: C_1  and  O_2
REMARK    2  A    between atoms: O_2  and  C_3
REMARK    3  A    between atoms: C_6  and  C_11
REMARK    4  A    between atoms: C_8  and  O_9
REMARK    5  A    between atoms: O_9  and  C_10
REMARK    6  A    between atoms: C_11  and  N_12
REMARK    7  A    between atoms: N_15  and  C_18
REMARK    8  A    between atoms: C_18  and  C_19
REMARK    9  A    between atoms: N_21  and  N_22
REMARK   10  A    between atoms: C_23  and  C_25
REMARK                            x       y       z     vdW  Elec       q    Type
REMARK                         _______ _______ _______ _____ _____    ______ ____
ROOT
ATOM      1  N   UNL     1      -1.209   1.116   1.003  0.00  0.00    +0.000 NA
ATOM      2  C   UNL     1      -0.564   0.649  -0.232  0.00  0.00    +0.000 C 
ATOM      3  C   UNL     1      -1.156   1.397  -1.429  0.00  0.00    +0.000 C 
ATOM      4  N   UNL     1      -0.956   2.842  -1.248  0.00  0.00    +0.000 NA
ATOM      5  C   UNL     1      -1.602   3.309  -0.013  0.00  0.00    +0.000 C 
ATOM      6  C   UNL     1      -1.010   2.561   1.184  0.00  0.00    +0.000 C 
ENDROOT
BRANCH   1   7
ATOM      7  C   UNL     1      -0.721   0.367   2.168  0.00  0.00    +0.000 C 
BRANCH   7  11
ATOM      8  C   UNL     1      -2.104   2.243   5.753  0.00  0.00    +0.000 A 
ATOM      9  C   UNL     1      -0.894   2.619   5.194  0.00  0.00    +0.000 A 
ATOM     10  C   UNL     1      -0.446   2.007   4.038  0.00  0.00    +0.000 A 
ATOM     11  C   UNL     1      -1.210   1.027   3.431  0.00  0.00    +0.000 A 
ATOM     12  C   UNL     1      -2.419   0.647   3.984  0.00  0.00    +0.000 A 
ATOM     13  C   UNL     1      -2.870   1.253   5.146  0.00  0.00    +0.000 A 
BRANCH  13  14
ATOM     14  O   UNL     1      -4.060   0.881   5.690  0.00  0.00    +0.000 OA
ATOM     15  C   UNL     1      -4.792  -0.142   5.012  0.00  0.00    +0.000 C 
ENDBRANCH  13  14
BRANCH   8  17
ATOM     16  C   UNL     1      -1.705   3.849   7.461  0.00  0.00    +0.000 C 
ATOM     17  O   UNL     1      -2.544   2.841   6.893  0.00  0.00    +0.000 OA
ENDBRANCH   8  17
ENDBRANCH   7  11
ENDBRANCH   1   7
BRANCH   4  18
ATOM     18  C   UNL     1      -1.445   3.591  -2.413  0.00  0.00    +0.000 C 
BRANCH  18  19
ATOM     19  C   UNL     1      -0.592   3.266  -3.612  0.00  0.00    +0.000 C 
ATOM     20  O   UNL     1       0.397   2.576  -3.484  0.00  0.00    +0.000 OA
ATOM     21  N   UNL     1      -0.930   3.741  -4.828  0.00  0.00    +0.000 N 
ATOM     22  H   UNL     1      -1.770   4.327  -4.936  0.00  0.00    +0.000 HD
BRANCH  21  23
ATOM     23  N   UNL     1      -0.137   3.439  -5.943  0.00  0.00    +0.000 N 
ATOM     24  C   UNL     1      -0.474   3.914  -7.158  0.00  0.00    +0.000 C 
ATOM     25  O   UNL     1      -1.467   4.606  -7.287  0.00  0.00    +0.000 OA
ATOM     26  H   UNL     1       0.703   2.853  -5.834  0.00  0.00    +0.000 HD
BRANCH  24  27
ATOM     27  C   UNL     1       0.355   3.598  -8.325  0.00  0.00    +0.000 A 
ATOM     28  C   UNL     1       0.129   4.012  -9.606  0.00  0.00    +0.000 A 
ATOM     29  C   UNL     1       1.164   3.480 -10.391  0.00  0.00    +0.000 A 
ATOM     30  C   UNL     1       1.966   2.773  -9.565  0.00  0.00    +0.000 A 
ATOM     31  O   UNL     1       1.478   2.850  -8.320  0.00  0.00    +0.000 OA
ENDBRANCH  24  27
ENDBRANCH  21  23
ENDBRANCH  18  19
ENDBRANCH   4  18
TORSDOF 8
ENDMDL
MODEL      691
REMARK  Name = ZINC19665363
REMARK  11 active torsions:
REMARK  status: ('A' for Active; 'I' for Inactive)
REMARK    1  A    between atoms: C_1  and  O_2
REMARK    2  A    between atoms: O_2  and  C_3
REMARK    3  A    between atoms: C_5  and  O_21
REMARK    4  A    between atoms: C_7  and  O_9
REMARK    5  A    between atoms: O_9  and  C_10
REMARK    6  A    between atoms: C_10  and  C_11
REMARK    7  A    between atoms: C_11  and  C_12
REMARK    8  A    between atoms: C_12  and  C_13
REMARK    9  A    between atoms: C_12  and  N_15
REMARK   10  A    between atoms: C_13  and  N_14
REMARK   11  A    between atoms: O_21  and  C_22
REMARK                            x       y       z     vdW  Elec       q    Type
REMARK                         _______ _______ _______ _____ _____    ______ ____
ROOT
ATOM      1  C   UNL     1       4.298   0.225   2.169  0.00  0.00    +0.000 C 
ENDROOT
BRANCH   1   2
ATOM      2  C   UNL     1       4.974  -0.347   0.922  0.00  0.00    +0.000 C 
BRANCH   2   3
ATOM      3  O   UNL     1       6.258   0.259   0.756  0.00  0.00    +0.000 OA
BRANCH   3   8
ATOM      4  C   UNL     1       7.246  -1.508  -2.273  0.00  0.00    +0.000 A 
ATOM      5  C   UNL     1       8.501  -0.960  -2.494  0.00  0.00    +0.000 A 
ATOM      6  C   UNL     1       9.003  -0.004  -1.625  0.00  0.00    +0.000 A 
ATOM      7  C   UNL     1       8.250   0.406  -0.534  0.00  0.00    +0.000 A 
ATOM      8  C   UNL     1       6.995  -0.142  -0.313  0.00  0.00    +0.000 A 
ATOM      9  C   UNL     1       6.495  -1.102  -1.180  0.00  0.00    +0.000 A 
BRANCH   6  10
ATOM     10  O   UNL     1      10.232   0.533  -1.841  0.00  0.00    +0.000 OA
ATOM     11  C   UNL     1      10.952   0.065  -2.984  0.00  0.00    +0.000 C 
ENDBRANCH   6  10
BRANCH   4  13
ATOM     12  C   UNL     1       7.583  -2.819  -4.227  0.00  0.00    +0.000 C 
ATOM     13  O   UNL     1       6.754  -2.445  -3.125  0.00  0.00    +0.000 OA
ENDBRANCH   4  13
ENDBRANCH   3   8
ENDBRANCH   2   3
ENDBRANCH   1   2
BRANCH   1  14
ATOM     14  C   UNL     1       2.924  -0.423   2.348  0.00  0.00    +0.000 C 
BRANCH  14  15
ATOM     15  N   UNL     1       2.054  -0.045   1.226  0.00  0.00    +0.000 NA
ATOM     16  C   UNL     1       0.822  -0.847   1.220  0.00  0.00    +0.000 C 
ATOM     17  C   UNL     1      -0.025  -0.462   0.004  0.00  0.00    +0.000 C 
ATOM     18  O   UNL     1      -0.293   0.942   0.041  0.00  0.00    +0.000 OA
ATOM     19  C   UNL     1       0.885   1.753   0.046  0.00  0.00    +0.000 C 
ATOM     20  C   UNL     1       1.741   1.391   1.263  0.00  0.00    +0.000 C 
ENDBRANCH  14  15
BRANCH  14  21
ATOM     21  C   UNL     1       2.300   0.055   3.660  0.00  0.00    +0.000 C 
BRANCH  21  22
ATOM     22  N   UNL     1       3.093  -0.446   4.790  0.00  0.00    +0.000 N 
ATOM     23  H   UNL     1       4.057  -0.090   4.720  0.00  0.00    +0.000 HD
ATOM     24  H   UNL     1       3.105  -1.476   4.773  0.00  0.00    +0.000 HD
ATOM     25  H   UNL     1       2.673  -0.124   5.674  0.00  0.00    +0.000 HD
ENDBRANCH  21  22
ENDBRANCH  14  21
ENDBRANCH   1  14
TORSDOF 9
ENDMDL
MODEL      692
REMARK  Name = ZINC00359844
REMARK  12 active torsions:
REMARK  status: ('A' for Active; 'I' for Inactive)
REMARK    1  A    between atoms: C_1  and  C_2
REMARK    2  A    between atoms: C_2  and  C_3
REMARK    3  A    between atoms: C_2  and  C_4
REMARK    4  A    between atoms: C_2  and  N_21
REMARK    5  A    between atoms: C_4  and  O_5
REMARK    6  A    between atoms: C_6  and  C_7
REMARK    7  A    between atoms: C_6  and  N_21
REMARK    8  A    between atoms: C_9  and  O_19
REMARK    9  A    between atoms: C_10  and  O_14
REMARK   10  A    between atoms: O_14  and  C_15
REMARK   11  A    between atoms: C_15  and  C_16
REMARK   12  A    between atoms: O_19  and  C_20
REMARK                            x       y       z     vdW  Elec       q    Type
REMARK                         _______ _______ _______ _____ _____    ______ ____
ROOT
ATOM      1  C   UNL     1       0.936   0.439   4.819  0.00  0.00    +0.000 A 
ATOM      2  C   UNL     1       1.347   1.612   4.213  0.00  0.00    +0.000 A 
ATOM      3  C   UNL     1       0.807   1.987   2.993  0.00  0.00    +0.000 A 
ATOM      4  C   UNL     1      -0.148   1.182   2.381  0.00  0.00    +0.000 A 
ATOM      5  C   UNL     1      -0.559   0.010   2.996  0.00  0.00    +0.000 A 
ATOM      6  C   UNL     1      -0.012  -0.362   4.212  0.00  0.00    +0.000 A 
ATOM      7 CL   UNL     1      -1.756  -0.995   2.239  0.00  0.00    +0.000 Cl
ENDROOT
BRANCH   3   8
ATOM      8  O   UNL     1       1.210   3.141   2.396  0.00  0.00    +0.000 OA
ATOM      9  C   UNL     1       2.194   3.917   3.082  0.00  0.00    +0.000 C 
ENDBRANCH   3   8
BRANCH   1  10
ATOM     10  C   UNL     1       1.525   0.032   6.146  0.00  0.00    +0.000 C 
BRANCH  10  11
ATOM     11  N   UNL     1       0.704   0.598   7.232  0.00  0.00    +0.000 N 
ATOM     12  H   UNL     1      -0.260   0.242   7.152  0.00  0.00    +0.000 HD
ATOM     13  H   UNL     1       0.692   1.625   7.152  0.00  0.00    +0.000 HD
BRANCH  11  15
ATOM     14  C   UNL     1       1.268  -1.309   8.674  0.00  0.00    +0.000 C 
ATOM     15  C   UNL     1       1.258   0.215   8.545  0.00  0.00    +0.000 C 
ATOM     16  C   UNL     1       2.686   0.748   8.675  0.00  0.00    +0.000 C 
BRANCH  15  17
ATOM     17  C   UNL     1       0.387   0.815   9.651  0.00  0.00    +0.000 C 
BRANCH  17  18
ATOM     18  O   UNL     1       0.917   0.449  10.926  0.00  0.00    +0.000 OA
ATOM     19  H   UNL     1       1.841   0.793  11.012  0.00  0.00    +0.000 HD
ENDBRANCH  17  18
ENDBRANCH  15  17
ENDBRANCH  11  15
ENDBRANCH  10  11
ENDBRANCH   1  10
BRANCH   4  20
ATOM     20  O   UNL     1      -0.682   1.547   1.184  0.00  0.00    +0.000 OA
BRANCH  20  21
ATOM     21  C   UNL     1      -0.013   1.086   0.008  0.00  0.00    +0.000 C 
BRANCH  21  22
ATOM     22  C   UNL     1      -0.742   1.585  -1.213  0.00  0.00    +0.000 C 
ATOM     23  O   UNL     1      -1.736   2.268  -1.088  0.00  0.00    +0.000 OA
ATOM     24  N   UNL     1      -0.288   1.272  -2.443  0.00  0.00    +0.000 N 
ATOM     25  H   UNL     1       0.556   0.692  -2.549  0.00  0.00    +0.000 HD
ATOM     26  H   UNL     1      -0.787   1.613  -3.278  0.00  0.00    +0.000 HD
ENDBRANCH  21  22
ENDBRANCH  20  21
ENDBRANCH   4  20
TORSDOF 9
ENDMDL
MODEL      693
REMARK  Name = ZINC27534201
REMARK  11 active torsions:
REMARK  status: ('A' for Active; 'I' for Inactive)
REMARK    1  A    between atoms: C_1  and  C_2
REMARK    2  A    between atoms: C_2  and  N_3
REMARK    3  A    between atoms: N_3  and  C_4
REMARK    4  A    between atoms: N_3  and  C_11
REMARK    5  A    between atoms: C_4  and  C_5
REMARK    6  A    between atoms: C_5  and  C_6
REMARK    7  A    between atoms: C_6  and  C_7
REMARK    8  A    between atoms: C_7  and  C_8
REMARK    9  A    between atoms: C_8  and  C_9
REMARK   10  A    between atoms: C_9  and  N_10
REMARK   11  A    between atoms: C_17  and  O_18
REMARK                            x       y       z     vdW  Elec       q    Type
REMARK                         _______ _______ _______ _____ _____    ______ ____
ROOT
ATOM      1  C   UNL     1      -0.342   2.776   1.784  0.00  0.00    +0.000 A 
ATOM      2  C   UNL     1       0.671   3.539   1.211  0.00  0.00    +0.000 A 
ATOM      3  C   UNL     1       1.031   4.751   1.763  0.00  0.00    +0.000 A 
ATOM      4  C   UNL     1       0.386   5.207   2.907  0.00  0.00    +0.000 A 
ATOM      5  C   UNL     1      -0.637   4.434   3.494  0.00  0.00    +0.000 A 
ATOM      6  C   UNL     1      -0.996   3.221   2.930  0.00  0.00    +0.000 A 
ATOM      7  C   UNL     1      -1.303   4.949   4.711  0.00  0.00    +0.000 A 
ATOM      8  N   UNL     1      -0.920   6.135   5.223  0.00  0.00    +0.000 NA
ATOM      9  N   UNL     1       0.092   6.899   4.641  0.00  0.00    +0.000 N 
ATOM     10  C   UNL     1       0.744   6.495   3.533  0.00  0.00    +0.000 A 
ATOM     11  O   UNL     1       1.621   7.186   3.053  0.00  0.00    +0.000 OA
ATOM     12  H   UNL     1       0.348   7.799   5.071  0.00  0.00    +0.000 HD
ENDROOT
BRANCH   7  13
ATOM     13  O   UNL     1      -2.189   4.309   5.243  0.00  0.00    +0.000 OA
ATOM     14  H   UNL     1      -1.779   3.427   5.429  0.00  0.00    +0.000 HD
ENDBRANCH   7  13
BRANCH   1  15
ATOM     15  N   UNL     1      -0.698   1.558   1.213  0.00  0.00    +0.000 N 
BRANCH  15  17
ATOM     16  C   UNL     1      -1.150  -0.204   2.847  0.00  0.00    +0.000 C 
ATOM     17  C   UNL     1      -1.760   0.749   1.817  0.00  0.00    +0.000 C 
ENDBRANCH  15  17
BRANCH  15  18
ATOM     18  C   UNL     1      -0.013   1.086   0.008  0.00  0.00    +0.000 C 
BRANCH  18  19
ATOM     19  C   UNL     1      -0.753   1.593  -1.232  0.00  0.00    +0.000 C 
BRANCH  19  20
ATOM     20  C   UNL     1      -0.037   1.099  -2.490  0.00  0.00    +0.000 C 
BRANCH  20  21
ATOM     21  C   UNL     1      -0.777   1.606  -3.730  0.00  0.00    +0.000 C 
BRANCH  21  22
ATOM     22  C   UNL     1      -0.060   1.113  -4.989  0.00  0.00    +0.000 C 
BRANCH  22  23
ATOM     23  C   UNL     1      -0.800   1.619  -6.228  0.00  0.00    +0.000 C 
BRANCH  23  24
ATOM     24  N   UNL     1      -0.113   1.146  -7.437  0.00  0.00    +0.000 N 
ATOM     25  H   UNL     1      -0.099   0.116  -7.444  0.00  0.00    +0.000 HD
ATOM     26  H   UNL     1       0.854   1.502  -7.445  0.00  0.00    +0.000 HD
ATOM     27  H   UNL     1      -0.611   1.487  -8.272  0.00  0.00    +0.000 HD
ENDBRANCH  23  24
ENDBRANCH  22  23
ENDBRANCH  21  22
ENDBRANCH  20  21
ENDBRANCH  19  20
ENDBRANCH  18  19
ENDBRANCH  15  18
ENDBRANCH   1  15
TORSDOF 10
ENDMDL
MODEL      694
REMARK  Name = ZINC05760426
REMARK  11 active torsions:
REMARK  status: ('A' for Active; 'I' for Inactive)
REMARK    1  A    between atoms: C_1  and  C_2
REMARK    2  A    between atoms: C_2  and  C_3
REMARK    3  A    between atoms: C_2  and  N_22
REMARK    4  A    between atoms: C_4  and  C_5
REMARK    5  A    between atoms: C_4  and  N_22
REMARK    6  A    between atoms: C_5  and  C_6
REMARK    7  A    between atoms: C_6  and  C_7
REMARK    8  A    between atoms: C_7  and  C_8
REMARK    9  A    between atoms: C_8  and  N_9
REMARK   10  A    between atoms: N_9  and  C_10
REMARK   11  A    between atoms: C_12  and  O_21
REMARK                            x       y       z     vdW  Elec       q    Type
REMARK                         _______ _______ _______ _____ _____    ______ ____
ROOT
ATOM      1  C   UNL     1      -0.564   1.460  -3.707  0.00  0.00    +0.000 A 
ATOM      2  C   UNL     1      -1.703   2.242  -3.810  0.00  0.00    +0.000 A 
ATOM      3  C   UNL     1      -2.227   2.602  -5.039  0.00  0.00    +0.000 A 
ATOM      4  C   UNL     1      -1.611   2.178  -6.220  0.00  0.00    +0.000 A 
ATOM      5  O   UNL     1      -2.110   2.521  -7.412  0.00  0.00    +0.000 OA
ATOM      6  C   UNL     1      -0.409   1.352  -6.125  0.00  0.00    +0.000 A 
ATOM      7  C   UNL     1       0.255   0.895  -7.269  0.00  0.00    +0.000 A 
ATOM      8  C   UNL     1       1.391   0.114  -7.113  0.00  0.00    +0.000 A 
ATOM      9  C   UNL     1       1.850  -0.202  -5.857  0.00  0.00    +0.000 A 
ATOM     10  N   UNL     1       1.224   0.229  -4.752  0.00  0.00    +0.000 N 
ATOM     11  C   UNL     1       0.097   1.012  -4.846  0.00  0.00    +0.000 A 
ATOM     12  H   UNL     1       1.590  -0.028  -3.824  0.00  0.00    +0.000 HD
ENDROOT
BRANCH   1  13
ATOM     13  N   UNL     1      -0.067   1.120  -2.437  0.00  0.00    +0.000 N 
ATOM     14  H   UNL     1       0.779   0.539  -2.353  0.00  0.00    +0.000 HD
BRANCH  13  15
ATOM     15  C   UNL     1      -0.753   1.593  -1.232  0.00  0.00    +0.000 C 
BRANCH  15  16
ATOM     16  C   UNL     1      -0.013   1.086   0.008  0.00  0.00    +0.000 C 
BRANCH  16  17
ATOM     17  C   UNL     1      -0.729   1.579   1.267  0.00  0.00    +0.000 C 
BRANCH  17  18
ATOM     18  C   UNL     1       0.011   1.072   2.506  0.00  0.00    +0.000 C 
BRANCH  18  19
ATOM     19  C   UNL     1      -0.705   1.566   3.765  0.00  0.00    +0.000 C 
BRANCH  19  20
ATOM     20  N   UNL     1       0.014   1.073   4.955  0.00  0.00    +0.000 N 
ATOM     21  H   UNL     1       0.982   1.427   4.939  0.00  0.00    +0.000 HD
ATOM     22  H   UNL     1       0.032   0.043   4.940  0.00  0.00    +0.000 HD
BRANCH  20  24
ATOM     23  C   UNL     1      -0.327   0.571   7.328  0.00  0.00    +0.000 C 
ATOM     24  C   UNL     1      -0.655   1.534   6.186  0.00  0.00    +0.000 C 
ATOM     25  C   UNL     1      -0.158   2.937   6.543  0.00  0.00    +0.000 C 
ENDBRANCH  20  24
ENDBRANCH  19  20
ENDBRANCH  18  19
ENDBRANCH  17  18
ENDBRANCH  16  17
ENDBRANCH  15  16
ENDBRANCH  13  15
ENDBRANCH   1  13
BRANCH   3  26
ATOM     26  O   UNL     1      -3.349   3.373  -5.099  0.00  0.00    +0.000 OA
ATOM     27  H   UNL     1      -3.127   4.187  -4.581  0.00  0.00    +0.000 HD
ENDBRANCH   3  26
TORSDOF 9
ENDMDL
MODEL      695
REMARK  Name = ZINC19680883
REMARK  8 active torsions:
REMARK  status: ('A' for Active; 'I' for Inactive)
REMARK    1  A    between atoms: C_4  and  C_7
REMARK    2  A    between atoms: C_7  and  C_8
REMARK    3  A    between atoms: C_8  and  C_9
REMARK    4  A    between atoms: C_9  and  S_10
REMARK    5  A    between atoms: S_10  and  N_13
REMARK    6  A    between atoms: N_13  and  C_14
REMARK    7  A    between atoms: C_14  and  C_15
REMARK    8  A    between atoms: C_15  and  N_16
REMARK                            x       y       z     vdW  Elec       q    Type
REMARK                         _______ _______ _______ _____ _____    ______ ____
ROOT
ATOM      1  S   UNL     1      -0.137   8.008  -3.107  0.00  0.00    +0.000 S 
ATOM      2  O   UNL     1       1.096   7.715  -3.750  0.00  0.00    +0.000 OA
ATOM      3  O   UNL     1      -1.373   7.682  -3.727  0.00  0.00    +0.000 OA
ENDROOT
BRANCH   1   4
ATOM      4  N   UNL     1      -0.158   9.658  -2.965  0.00  0.00    +0.000 NA
ATOM      5  H   UNL     1      -0.977  10.193  -3.289  0.00  0.00    +0.000 HD
BRANCH   4   6
ATOM      6  C   UNL     1       0.988  10.358  -2.380  0.00  0.00    +0.000 C 
BRANCH   6   7
ATOM      7  C   UNL     1       0.892  11.851  -2.699  0.00  0.00    +0.000 C 
BRANCH   7   8
ATOM      8  N   UNL     1       2.041  12.553  -2.111  0.00  0.00    +0.000 NA
ATOM      9  C   UNL     1       3.294  11.837  -2.390  0.00  0.00    +0.000 C 
ATOM     10  C   UNL     1       4.454  12.555  -1.696  0.00  0.00    +0.000 C 
ATOM     11  N   UNL     1       4.525  13.942  -2.176  0.00  0.00    +0.000 N 
ATOM     12  C   UNL     1       3.272  14.658  -1.897  0.00  0.00    +0.000 C 
ATOM     13  C   UNL     1       2.112  13.940  -2.591  0.00  0.00    +0.000 C 
ATOM     14  H   UNL     1       5.304  14.425  -1.705  0.00  0.00    +0.000 HD
ATOM     15  H   UNL     1       4.698  13.943  -3.191  0.00  0.00    +0.000 HD
ENDBRANCH   7   8
ENDBRANCH   6   7
ENDBRANCH   4   6
ENDBRANCH   1   4
BRANCH   1  16
ATOM     16  C   UNL     1      -0.112   7.395  -1.400  0.00  0.00    +0.000 C 
BRANCH  16  17
ATOM     17  C   UNL     1      -0.091   5.865  -1.409  0.00  0.00    +0.000 C 
BRANCH  17  18
ATOM     18  C   UNL     1      -0.070   5.347   0.031  0.00  0.00    +0.000 C 
BRANCH  18  22
ATOM     19  C   UNL     1      -0.013   1.076   0.008  0.00  0.00    +0.000 A 
ATOM     20  C   UNL     1      -1.219   1.751   0.017  0.00  0.00    +0.000 A 
ATOM     21  C   UNL     1      -1.238   3.133   0.030  0.00  0.00    +0.000 A 
ATOM     22  C   UNL     1      -0.050   3.840   0.023  0.00  0.00    +0.000 A 
ATOM     23  C   UNL     1       1.156   3.165   0.008  0.00  0.00    +0.000 A 
ATOM     24  C   UNL     1       1.175   1.783   0.000  0.00  0.00    +0.000 A 
ENDBRANCH  18  22
ENDBRANCH  17  18
ENDBRANCH  16  17
ENDBRANCH   1  16
TORSDOF 8
ENDMDL
MODEL      696
REMARK  Name = ZINC04896320
REMARK  10 active torsions:
REMARK  status: ('A' for Active; 'I' for Inactive)
REMARK    1  A    between atoms: C_3  and  C_14
REMARK    2  A    between atoms: C_5  and  C_7
REMARK    3  A    between atoms: N_8  and  N_9
REMARK    4  A    between atoms: N_9  and  C_10
REMARK    5  A    between atoms: C_10  and  N_12
REMARK    6  A    between atoms: N_12  and  N_13
REMARK    7  A    between atoms: N_15  and  N_16
REMARK    8  A    between atoms: N_16  and  C_17
REMARK    9  A    between atoms: C_17  and  N_19
REMARK   10  A    between atoms: N_19  and  N_20
REMARK                            x       y       z     vdW  Elec       q    Type
REMARK                         _______ _______ _______ _____ _____    ______ ____
ROOT
ATOM      1  C   UNL     1      -0.042   1.920   1.193  0.00  0.00    +0.000 A 
ATOM      2  C   UNL     1      -1.293   2.206   0.672  0.00  0.00    +0.000 A 
ATOM      3  C   UNL     1      -1.451   3.319  -0.158  0.00  0.00    +0.000 A 
ATOM      4  N   UNL     1      -0.414   4.092  -0.458  0.00  0.00    +0.000 NA
ATOM      5  C   UNL     1       0.799   3.841   0.022  0.00  0.00    +0.000 A 
ATOM      6  C   UNL     1       1.019   2.746   0.862  0.00  0.00    +0.000 A 
ENDROOT
BRANCH   5   7
ATOM      7  C   UNL     1       1.923   4.725  -0.335  0.00  0.00    +0.000 C 
ATOM      8  N   UNL     1       3.145   4.323  -0.164  0.00  0.00    +0.000 NA
BRANCH   8   9
ATOM      9  N   UNL     1       3.435   2.952  -0.148  0.00  0.00    +0.000 N 
ATOM     10  H   UNL     1       2.700   2.267  -0.375  0.00  0.00    +0.000 HD
BRANCH   9  11
ATOM     11  C   UNL     1       4.676   2.530   0.164  0.00  0.00    +0.000 C 
ATOM     12  S   UNL     1       5.064   0.865   0.065  0.00  0.00    +0.000 S 
BRANCH  11  13
ATOM     13  N   UNL     1       5.612   3.418   0.554  0.00  0.00    +0.000 N 
ATOM     14  H   UNL     1       6.577   3.105   0.731  0.00  0.00    +0.000 HD
BRANCH  13  15
ATOM     15  N   UNL     1       5.281   4.733   0.715  0.00  0.00    +0.000 NA
ATOM     16  H   UNL     1       4.315   5.046   0.538  0.00  0.00    +0.000 HD
ATOM     17  H   UNL     1       5.996   5.412   1.013  0.00  0.00    +0.000 HD
ENDBRANCH  13  15
ENDBRANCH  11  13
ENDBRANCH   9  11
ENDBRANCH   8   9
ENDBRANCH   5   7
BRANCH   3  18
ATOM     18  C   UNL     1      -2.780   3.634  -0.712  0.00  0.00    +0.000 C 
ATOM     19  N   UNL     1      -2.911   4.589  -1.581  0.00  0.00    +0.000 NA
BRANCH  19  20
ATOM     20  N   UNL     1      -1.776   5.164  -2.167  0.00  0.00    +0.000 N 
ATOM     21  H   UNL     1      -0.836   4.852  -1.883  0.00  0.00    +0.000 HD
BRANCH  20  22
ATOM     22  C   UNL     1      -1.913   6.124  -3.103  0.00  0.00    +0.000 C 
ATOM     23  S   UNL     1      -0.534   6.731  -3.915  0.00  0.00    +0.000 S 
BRANCH  22  24
ATOM     24  N   UNL     1      -3.136   6.606  -3.400  0.00  0.00    +0.000 N 
ATOM     25  H   UNL     1      -3.252   7.278  -4.171  0.00  0.00    +0.000 HD
BRANCH  24  26
ATOM     26  N   UNL     1      -4.223   6.203  -2.677  0.00  0.00    +0.000 NA
ATOM     27  H   UNL     1      -4.108   5.530  -1.905  0.00  0.00    +0.000 HD
ATOM     28  H   UNL     1      -5.158   6.571  -2.903  0.00  0.00    +0.000 HD
ENDBRANCH  24  26
ENDBRANCH  22  24
ENDBRANCH  20  22
ENDBRANCH  19  20
ENDBRANCH   3  18
TORSDOF 10
ENDMDL
MODEL      697
REMARK  Name = ZINC29477247
REMARK  10 active torsions:
REMARK  status: ('A' for Active; 'I' for Inactive)
REMARK    1  A    between atoms: C_1  and  C_2
REMARK    2  A    between atoms: C_2  and  O_3
REMARK    3  A    between atoms: O_3  and  C_4
REMARK    4  A    between atoms: C_4  and  C_6
REMARK    5  A    between atoms: C_7  and  C_14
REMARK    6  A    between atoms: C_12  and  C_13
REMARK    7  A    between atoms: C_14  and  S_15
REMARK    8  A    between atoms: S_15  and  C_16
REMARK    9  A    between atoms: N_17  and  C_18
REMARK   10  A    between atoms: C_18  and  C_19
REMARK                            x       y       z     vdW  Elec       q    Type
REMARK                         _______ _______ _______ _____ _____    ______ ____
ROOT
ATOM      1  C   UNL     1       0.043   1.660  -0.509  0.00  0.00    +0.000 C 
ATOM      2  C   UNL     1      -0.085   0.389  -0.073  0.00  0.00    +0.000 C 
ATOM      3  N   UNL     1       1.007  -0.339   0.306  0.00  0.00    +0.000 N 
ATOM      4  C   UNL     1       2.260   0.132   0.278  0.00  0.00    +0.000 C 
ATOM      5  O   UNL     1       3.169  -0.592   0.635  0.00  0.00    +0.000 OA
ATOM      6  N   UNL     1       2.546   1.383  -0.133  0.00  0.00    +0.000 N 
ATOM      7  C   UNL     1       1.437   2.251  -0.564  0.00  0.00    +0.000 C 
ATOM      8  C   UNL     1       1.709   2.684  -2.006  0.00  0.00    +0.000 C 
ATOM      9  H   UNL     1       0.859  -1.305   0.631  0.00  0.00    +0.000 HD
ATOM     10  H   UNL     1       3.518   1.725  -0.146  0.00  0.00    +0.000 HD
ENDROOT
BRANCH   1  11
ATOM     11  C   UNL     1      -1.087   2.413  -0.907  0.00  0.00    +0.000 C 
ATOM     12  O   UNL     1      -2.175   1.877  -0.997  0.00  0.00    +0.000 OA
BRANCH  11  13
ATOM     13  O   UNL     1      -0.957   3.727  -1.186  0.00  0.00    +0.000 OA
BRANCH  13  15
ATOM     14  C   UNL     1      -1.798   5.892  -1.854  0.00  0.00    +0.000 C 
ATOM     15  C   UNL     1      -2.139   4.426  -1.581  0.00  0.00    +0.000 C 
ENDBRANCH  13  15
ENDBRANCH  11  13
ENDBRANCH   1  11
BRANCH   2  16
ATOM     16  C   UNL     1      -1.454  -0.237  -0.002  0.00  0.00    +0.000 C 
BRANCH  16  17
ATOM     17  S   UNL     1      -1.714  -1.285  -1.454  0.00  0.00    +0.000 S 
BRANCH  17  18
ATOM     18  C   UNL     1      -3.342  -1.872  -1.121  0.00  0.00    +0.000 C 
ATOM     19  N   UNL     1      -3.963  -1.491  -0.039  0.00  0.00    +0.000 N 
ATOM     20  N   UNL     1      -3.957  -2.731  -2.001  0.00  0.00    +0.000 N 
ATOM     21  H   UNL     1      -3.466  -0.934   0.671  0.00  0.00    +0.000 HD
ATOM     22  H   UNL     1      -3.466  -3.032  -2.856  0.00  0.00    +0.000 HD
ATOM     23  H   UNL     1      -4.909  -3.074  -1.806  0.00  0.00    +0.000 HD
BRANCH  19  24
ATOM     24  C   UNL     1      -5.367  -1.855   0.165  0.00  0.00    +0.000 C 
BRANCH  24  25
ATOM     25  C   UNL     1      -5.479  -2.782   1.348  0.00  0.00    +0.000 C 
ATOM     26  C   UNL     1      -6.280  -2.484   2.341  0.00  0.00    +0.000 C 
ENDBRANCH  24  25
ENDBRANCH  19  24
ENDBRANCH  17  18
ENDBRANCH  16  17
ENDBRANCH   2  16
TORSDOF 8
ENDMDL
MODEL      698
REMARK  Name = ZINC02269343
REMARK  12 active torsions:
REMARK  status: ('A' for Active; 'I' for Inactive)
REMARK    1  A    between atoms: C_1  and  C_2
REMARK    2  A    between atoms: C_2  and  N_13
REMARK    3  A    between atoms: N_13  and  O_14
REMARK    4  A    between atoms: O_14  and  C_15
REMARK    5  A    between atoms: C_15  and  C_16
REMARK    6  A    between atoms: C_16  and  C_17
REMARK    7  A    between atoms: C_16  and  O_22
REMARK    8  A    between atoms: C_17  and  N_23
REMARK    9  A    between atoms: C_18  and  C_19
REMARK   10  A    between atoms: C_18  and  C_20
REMARK   11  A    between atoms: C_18  and  C_21
REMARK   12  A    between atoms: C_18  and  N_23
REMARK                            x       y       z     vdW  Elec       q    Type
REMARK                         _______ _______ _______ _____ _____    ______ ____
ROOT
ATOM      1  N   UNL     1       3.106   7.237  -1.028  0.00  0.00    +0.000 N 
ATOM      2  H   UNL     1       3.812   7.742  -1.582  0.00  0.00    +0.000 HD
ENDROOT
BRANCH   1   4
ATOM      3  C   UNL     1       2.072   5.093  -0.207  0.00  0.00    +0.000 C 
ATOM      4  C   UNL     1       3.170   5.844  -0.916  0.00  0.00    +0.000 C 
ATOM      5  C   UNL     1       4.194   5.185  -1.434  0.00  0.00    +0.000 C 
ATOM      6  C   UNL     1       5.263   5.884  -2.253  0.00  0.00    +0.000 C 
ATOM      7  O   UNL     1       6.532   5.534  -1.688  0.00  0.00    +0.000 OA
ATOM      8  C   UNL     1       6.707   4.240  -1.306  0.00  0.00    +0.000 A 
ATOM      9  C   UNL     1       7.999   3.759  -1.137  0.00  0.00    +0.000 A 
ATOM     10  C   UNL     1       8.207   2.454  -0.734  0.00  0.00    +0.000 A 
ATOM     11  C   UNL     1       7.130   1.617  -0.508  0.00  0.00    +0.000 A 
ATOM     12  C   UNL     1       5.842   2.086  -0.678  0.00  0.00    +0.000 A 
ATOM     13  C   UNL     1       5.626   3.397  -1.080  0.00  0.00    +0.000 A 
ATOM     14  O   UNL     1       4.348   3.835  -1.259  0.00  0.00    +0.000 OA
ENDBRANCH   1   4
BRANCH   1  15
ATOM     15  O   UNL     1       2.070   7.952  -0.380  0.00  0.00    +0.000 OA
BRANCH  15  16
ATOM     16  C   UNL     1       2.127   9.366  -0.579  0.00  0.00    +0.000 C 
BRANCH  16  17
ATOM     17  C   UNL     1       0.966  10.033   0.163  0.00  0.00    +0.000 C 
BRANCH  17  18
ATOM     18  O   UNL     1       1.128   9.842   1.570  0.00  0.00    +0.000 OA
ATOM     19  H   UNL     1       1.982  10.248   1.862  0.00  0.00    +0.000 HD
ENDBRANCH  17  18
BRANCH  17  20
ATOM     20  C   UNL     1       0.953  11.530  -0.151  0.00  0.00    +0.000 C 
BRANCH  20  21
ATOM     21  N   UNL     1      -0.168  12.165   0.567  0.00  0.00    +0.000 N 
ATOM     22  H   UNL     1      -0.051  12.020   1.580  0.00  0.00    +0.000 HD
ATOM     23  H   UNL     1      -1.054  11.736   0.265  0.00  0.00    +0.000 HD
BRANCH  21  24
ATOM     24  C   UNL     1      -0.204  13.612   0.282  0.00  0.00    +0.000 C 
ATOM     25  C   UNL     1      -0.389  13.836  -1.220  0.00  0.00    +0.000 C 
ATOM     26  C   UNL     1      -1.375  14.242   1.040  0.00  0.00    +0.000 C 
ATOM     27  C   UNL     1       1.105  14.259   0.737  0.00  0.00    +0.000 C 
ENDBRANCH  21  24
ENDBRANCH  20  21
ENDBRANCH  17  20
ENDBRANCH  16  17
ENDBRANCH  15  16
ENDBRANCH   1  15
TORSDOF 8
ENDMDL
MODEL      699
REMARK  Name = ZINC05266223
REMARK  11 active torsions:
REMARK  status: ('A' for Active; 'I' for Inactive)
REMARK    1  A    between atoms: C_1  and  O_2
REMARK    2  A    between atoms: O_2  and  C_3
REMARK    3  A    between atoms: C_3  and  C_4
REMARK    4  A    between atoms: C_4  and  N_5
REMARK    5  A    between atoms: C_7  and  N_14
REMARK    6  A    between atoms: N_17  and  C_18
REMARK    7  A    between atoms: N_17  and  C_21
REMARK    8  A    between atoms: C_18  and  C_19
REMARK    9  A    between atoms: C_19  and  O_20
REMARK   10  A    between atoms: C_21  and  C_22
REMARK   11  A    between atoms: C_22  and  O_23
REMARK                            x       y       z     vdW  Elec       q    Type
REMARK                         _______ _______ _______ _____ _____    ______ ____
ROOT
ATOM      1  N   UNL     1       1.101   1.881   0.002  0.00  0.00    +0.000 N 
ATOM      2  C   UNL     1      -0.013   1.076   0.008  0.00  0.00    +0.000 A 
ATOM      3  C   UNL     1      -1.124   1.835   0.017  0.00  0.00    +0.000 A 
ATOM      4  C   UNL     1      -0.686   3.236   0.025  0.00  0.00    +0.000 A 
ATOM      5  C   UNL     1       0.721   3.205   0.012  0.00  0.00    +0.000 A 
ATOM      6  C   UNL     1       1.429   4.402   0.011  0.00  0.00    +0.000 A 
ATOM      7  C   UNL     1       0.748   5.600   0.023  0.00  0.00    +0.000 A 
ATOM      8  C   UNL     1      -0.640   5.625   0.036  0.00  0.00    +0.000 A 
ATOM      9  C   UNL     1      -1.355   4.460   0.037  0.00  0.00    +0.000 A 
ENDROOT
BRANCH   3  10
ATOM     10  N   UNL     1      -2.454   1.374   0.020  0.00  0.00    +0.000 N 
ATOM     11  C   UNL     1      -2.708   0.050   0.015  0.00  0.00    +0.000 C 
ATOM     12  O   UNL     1      -1.788  -0.746   0.007  0.00  0.00    +0.000 OA
ATOM     13  N   UNL     1      -3.981  -0.392   0.018  0.00  0.00    +0.000 N 
ATOM     14  H   UNL     1      -3.233   2.047   0.027  0.00  0.00    +0.000 HD
BRANCH  13  15
ATOM     15  C   UNL     1      -5.089   0.567   0.028  0.00  0.00    +0.000 C 
BRANCH  15  16
ATOM     16  C   UNL     1      -5.481   0.907  -1.411  0.00  0.00    +0.000 C 
BRANCH  16  17
ATOM     17  O   UNL     1      -5.997  -0.261  -2.054  0.00  0.00    +0.000 OA
ATOM     18  H   UNL     1      -6.794  -0.584  -1.563  0.00  0.00    +0.000 HD
ENDBRANCH  16  17
ENDBRANCH  15  16
ENDBRANCH  13  15
BRANCH  13  19
ATOM     19  C   UNL     1      -4.257  -1.831   0.013  0.00  0.00    +0.000 C 
BRANCH  19  20
ATOM     20  C   UNL     1      -4.347  -2.338   1.453  0.00  0.00    +0.000 C 
BRANCH  20  21
ATOM     21  O   UNL     1      -5.472  -1.740   2.100  0.00  0.00    +0.000 OA
ATOM     22  H   UNL     1      -6.300  -1.981   1.613  0.00  0.00    +0.000 HD
ENDBRANCH  20  21
ENDBRANCH  19  20
ENDBRANCH  13  19
ENDBRANCH   3  10
BRANCH   1  23
ATOM     23  C   UNL     1       2.485   1.403  -0.013  0.00  0.00    +0.000 C 
BRANCH  23  24
ATOM     24  C   UNL     1       3.021   1.348   1.419  0.00  0.00    +0.000 C 
BRANCH  24  26
ATOM     25  C   UNL     1       4.970   0.793   2.699  0.00  0.00    +0.000 C 
ATOM     26  O   UNL     1       4.372   0.882   1.404  0.00  0.00    +0.000 OA
ENDBRANCH  24  26
ENDBRANCH  23  24
ENDBRANCH   1  23
TORSDOF 10
ENDMDL
MODEL      700
REMARK  Name = ZINC21813779
REMARK  10 active torsions:
REMARK  status: ('A' for Active; 'I' for Inactive)
REMARK    1  A    between atoms: C_1  and  O_2
REMARK    2  A    between atoms: O_2  and  C_3
REMARK    3  A    between atoms: C_3  and  C_4
REMARK    4  A    between atoms: C_4  and  O_5
REMARK    5  A    between atoms: O_5  and  C_6
REMARK    6  A    between atoms: C_6  and  C_7
REMARK    7  A    between atoms: C_7  and  C_8
REMARK    8  A    between atoms: N_10  and  C_11
REMARK    9  A    between atoms: C_14  and  N_21
REMARK   10  A    between atoms: C_15  and  C_17
REMARK                            x       y       z     vdW  Elec       q    Type
REMARK                         _______ _______ _______ _____ _____    ______ ____
ROOT
ATOM      1  C   UNL     1      -2.393   1.154  -0.086  0.00  0.00    +0.000 A 
ATOM      2  C   UNL     1      -2.412  -0.089  -0.704  0.00  0.00    +0.000 A 
ATOM      3  C   UNL     1      -3.595  -0.793  -0.802  0.00  0.00    +0.000 A 
ATOM      4  C   UNL     1      -4.769  -0.253  -0.293  0.00  0.00    +0.000 A 
ATOM      5  C   UNL     1      -4.751   0.993   0.321  0.00  0.00    +0.000 A 
ATOM      6  C   UNL     1      -3.566   1.694   0.424  0.00  0.00    +0.000 A 
ENDROOT
BRANCH   5   7
ATOM      7  C   UNL     1      -6.024   1.579   0.874  0.00  0.00    +0.000 C 
ATOM      8  F   UNL     1      -5.755   2.830   1.439  0.00  0.00    +0.000 F 
ATOM      9  F   UNL     1      -6.958   1.724  -0.158  0.00  0.00    +0.000 F 
ATOM     10  F   UNL     1      -6.542   0.726   1.855  0.00  0.00    +0.000 F 
ENDBRANCH   5   7
BRANCH   1  13
ATOM     11  C   UNL     1      -0.027   1.205   0.175  0.00  0.00    +0.000 C 
ATOM     12  O   UNL     1      -0.028   0.001   0.322  0.00  0.00    +0.000 OA
ATOM     13  N   UNL     1      -1.191   1.867   0.018  0.00  0.00    +0.000 N 
ATOM     14  H   UNL     1      -1.196   2.896  -0.026  0.00  0.00    +0.000 HD
BRANCH  11  15
ATOM     15  C   UNL     1       1.277   1.961   0.161  0.00  0.00    +0.000 C 
BRANCH  15  16
ATOM     16  C   UNL     1       2.437   0.981   0.352  0.00  0.00    +0.000 C 
BRANCH  16  17
ATOM     17  O   UNL     1       3.673   1.698   0.339  0.00  0.00    +0.000 OA
BRANCH  17  18
ATOM     18  C   UNL     1       4.826   0.871   0.510  0.00  0.00    +0.000 C 
BRANCH  18  19
ATOM     19  C   UNL     1       6.085   1.739   0.480  0.00  0.00    +0.000 C 
BRANCH  19  21
ATOM     20  C   UNL     1       7.222   3.481   1.671  0.00  0.00    +0.000 C 
ATOM     21  O   UNL     1       6.082   2.621   1.604  0.00  0.00    +0.000 OA
ENDBRANCH  19  21
ENDBRANCH  18  19
ENDBRANCH  17  18
ENDBRANCH  16  17
ENDBRANCH  15  16
ENDBRANCH  11  15
ENDBRANCH   1  13
BRANCH   4  22
ATOM     22  N   UNL     1      -5.969  -0.964  -0.398  0.00  0.00    +0.000 N 
ATOM     23  H   UNL     1      -5.983  -1.888  -0.853  0.00  0.00    +0.000 HD
ATOM     24  H   UNL     1      -6.840  -0.563  -0.020  0.00  0.00    +0.000 HD
ENDBRANCH   4  22
TORSDOF 9
ENDMDL
MODEL      701
REMARK  Name = ZINC31384614
REMARK  14 active torsions:
REMARK  status: ('A' for Active; 'I' for Inactive)
REMARK    1  A    between atoms: C_1  and  C_2
REMARK    2  A    between atoms: C_2  and  N_3
REMARK    3  A    between atoms: N_3  and  C_4
REMARK    4  A    between atoms: N_3  and  C_6
REMARK    5  A    between atoms: C_4  and  C_5
REMARK    6  A    between atoms: C_6  and  C_7
REMARK    7  A    between atoms: C_6  and  C_21
REMARK    8  A    between atoms: C_7  and  N_8
REMARK    9  A    between atoms: C_9  and  C_11
REMARK   10  A    between atoms: C_11  and  C_12
REMARK   11  A    between atoms: C_13  and  C_20
REMARK   12  A    between atoms: C_15  and  C_19
REMARK   13  A    between atoms: C_21  and  C_22
REMARK   14  A    between atoms: C_21  and  C_23
REMARK                            x       y       z     vdW  Elec       q    Type
REMARK                         _______ _______ _______ _____ _____    ______ ____
ROOT
ATOM      1  N   UNL     1       4.528  -2.703  -2.017  0.00  0.00    +0.000 N 
ATOM      2  C   UNL     1       3.268  -2.288  -1.774  0.00  0.00    +0.000 C 
ATOM      3  O   UNL     1       2.745  -1.477  -2.507  0.00  0.00    +0.000 OA
ATOM      4  H   UNL     1       4.972  -3.392  -1.394  0.00  0.00    +0.000 HD
ENDROOT
BRANCH   2   5
ATOM      5  C   UNL     1       2.510  -2.834  -0.591  0.00  0.00    +0.000 C 
BRANCH   5   6
ATOM      6  C   UNL     1       1.137  -2.215  -0.545  0.00  0.00    +0.000 A 
ATOM      7  C   UNL     1       0.069  -2.849  -1.105  0.00  0.00    +0.000 A 
ATOM      8  N   UNL     1      -1.140  -2.286  -1.054  0.00  0.00    +0.000 NA
ATOM      9  C   UNL     1      -1.332  -1.130  -0.477  0.00  0.00    +0.000 A 
ATOM     10  N   UNL     1      -0.317  -0.452   0.094  0.00  0.00    +0.000 N 
ATOM     11  C   UNL     1       0.931  -0.967   0.078  0.00  0.00    +0.000 A 
ATOM     12  O   UNL     1       1.860  -0.366   0.591  0.00  0.00    +0.000 OA
ATOM     13  C   UNL     1      -2.718  -0.538  -0.455  0.00  0.00    +0.000 C 
ATOM     14  C   UNL     1       0.253  -4.185  -1.778  0.00  0.00    +0.000 C 
ATOM     15  H   UNL     1      -0.494   0.458   0.543  0.00  0.00    +0.000 HD
ENDBRANCH   5   6
ENDBRANCH   2   5
BRANCH   1  16
ATOM     16  C   UNL     1       5.264  -2.172  -3.167  0.00  0.00    +0.000 C 
BRANCH  16  17
ATOM     17  C   UNL     1       6.699  -2.703  -3.142  0.00  0.00    +0.000 C 
BRANCH  17  18
ATOM     18  C   UNL     1       7.482  -2.112  -4.317  0.00  0.00    +0.000 C 
ATOM     19  C   UNL     1       8.894  -2.701  -4.336  0.00  0.00    +0.000 C 
ATOM     20  C   UNL     1       6.769  -2.453  -5.627  0.00  0.00    +0.000 C 
ENDBRANCH  17  18
BRANCH  17  21
ATOM     21  N   UNL     1       7.343  -2.315  -1.880  0.00  0.00    +0.000 N 
ATOM     22  H   UNL     1       6.632  -2.354  -1.136  0.00  0.00    +0.000 HD
BRANCH  21  24
ATOM     23  C   UNL     1       7.808  -4.532  -0.949  0.00  0.00    +0.000 C 
ATOM     24  C   UNL     1       8.417  -3.253  -1.527  0.00  0.00    +0.000 C 
ENDBRANCH  21  24
BRANCH  21  25
ATOM     25  C   UNL     1       7.849  -0.937  -1.949  0.00  0.00    +0.000 C 
ATOM     26  C   UNL     1       8.160  -0.437  -0.537  0.00  0.00    +0.000 C 
ENDBRANCH  21  25
ENDBRANCH  17  21
ENDBRANCH  16  17
ENDBRANCH   1  16
TORSDOF 8
ENDMDL
MODEL      702
REMARK  Name = ZINC19823972
REMARK  9 active torsions:
REMARK  status: ('A' for Active; 'I' for Inactive)
REMARK    1  A    between atoms: C_1  and  C_2
REMARK    2  A    between atoms: C_2  and  N_3
REMARK    3  A    between atoms: N_3  and  C_4
REMARK    4  A    between atoms: N_3  and  C_6
REMARK    5  A    between atoms: C_4  and  C_5
REMARK    6  A    between atoms: C_6  and  C_7
REMARK    7  A    between atoms: C_7  and  N_8
REMARK    8  A    between atoms: N_8  and  C_9
REMARK    9  A    between atoms: C_9  and  C_10
REMARK                            x       y       z     vdW  Elec       q    Type
REMARK                         _______ _______ _______ _____ _____    ______ ____
ROOT
ATOM      1  C   UNL     1       0.631   2.751   1.033  0.00  0.00    +0.000 A 
ATOM      2  C   UNL     1      -0.194   2.179   1.947  0.00  0.00    +0.000 A 
ATOM      3  C   UNL     1      -0.559   2.947   3.136  0.00  0.00    +0.000 A 
ATOM      4  C   UNL     1      -1.405   2.407   4.113  0.00  0.00    +0.000 A 
ATOM      5  C   UNL     1      -1.731   3.155   5.223  0.00  0.00    +0.000 A 
ATOM      6  C   UNL     1      -1.220   4.450   5.377  0.00  0.00    +0.000 A 
ATOM      7  C   UNL     1      -0.385   4.991   4.417  0.00  0.00    +0.000 A 
ATOM      8  C   UNL     1      -0.046   4.249   3.292  0.00  0.00    +0.000 A 
ATOM      9  N   UNL     1       0.788   4.773   2.325  0.00  0.00    +0.000 N 
ATOM     10  C   UNL     1       1.123   4.055   1.238  0.00  0.00    +0.000 A 
ATOM     11  O   UNL     1       1.867   4.548   0.407  0.00  0.00    +0.000 OA
ATOM     12  O   UNL     1      -1.692   4.965   6.548  0.00  0.00    +0.000 OA
ATOM     13  C   UNL     1      -2.158   3.834   7.307  0.00  0.00    +0.000 C 
ATOM     14  O   UNL     1      -2.519   2.869   6.301  0.00  0.00    +0.000 OA
ATOM     15  H   UNL     1       1.160   5.727   2.437  0.00  0.00    +0.000 HD
ENDROOT
BRANCH   1  16
ATOM     16  C   UNL     1       1.028   1.985  -0.203  0.00  0.00    +0.000 C 
BRANCH  16  17
ATOM     17  N   UNL     1       0.129   2.341  -1.309  0.00  0.00    +0.000 NA
ATOM     18  H   UNL     1       0.194   3.354  -1.486  0.00  0.00    +0.000 HD
BRANCH  17  19
ATOM     19  C   UNL     1       0.486   1.612  -2.533  0.00  0.00    +0.000 C 
BRANCH  19  20
ATOM     20  C   UNL     1      -0.469   2.008  -3.660  0.00  0.00    +0.000 C 
BRANCH  20  21
ATOM     21  N   UNL     1      -0.112   1.279  -4.885  0.00  0.00    +0.000 N 
ATOM     22  H   UNL     1       0.893   1.423  -5.057  0.00  0.00    +0.000 HD
BRANCH  21  23
ATOM     23  C   UNL     1      -0.849   1.803  -6.043  0.00  0.00    +0.000 C 
ATOM     24  C   UNL     1      -0.187   1.311  -7.332  0.00  0.00    +0.000 C 
ENDBRANCH  21  23
BRANCH  21  26
ATOM     25  C   UNL     1      -1.822  -0.417  -4.441  0.00  0.00    +0.000 C 
ATOM     26  C   UNL     1      -0.340  -0.163  -4.724  0.00  0.00    +0.000 C 
ENDBRANCH  21  26
ENDBRANCH  20  21
ENDBRANCH  19  20
ENDBRANCH  17  19
ENDBRANCH  16  17
ENDBRANCH   1  16
TORSDOF 7
ENDMDL
MODEL      703
REMARK  Name = ZINC07104443
REMARK  9 active torsions:
REMARK  status: ('A' for Active; 'I' for Inactive)
REMARK    1  A    between atoms: C_1  and  N_2
REMARK    2  A    between atoms: C_3  and  C_18
REMARK    3  A    between atoms: C_6  and  S_7
REMARK    4  A    between atoms: S_7  and  C_8
REMARK    5  A    between atoms: C_8  and  C_9
REMARK    6  A    between atoms: C_9  and  O_10
REMARK    7  A    between atoms: O_10  and  C_11
REMARK    8  A    between atoms: C_18  and  C_19
REMARK    9  A    between atoms: C_19  and  C_20
REMARK                            x       y       z     vdW  Elec       q    Type
REMARK                         _______ _______ _______ _____ _____    ______ ____
ROOT
ATOM      1  C   UNL     1      -4.073   8.759   0.070  0.00  0.00    +0.000 C 
ATOM      2  N   UNL     1      -4.776   7.474   0.065  0.00  0.00    +0.000 N 
ATOM      3  C   UNL     1      -6.128   7.272   0.070  0.00  0.00    +0.000 A 
ATOM      4  N   UNL     1      -6.328   5.984   0.063  0.00  0.00    +0.000 NA
ATOM      5  N   UNL     1      -5.203   5.363   0.050  0.00  0.00    +0.000 NA
ATOM      6  C   UNL     1      -4.216   6.228   0.056  0.00  0.00    +0.000 A 
ENDROOT
BRANCH   6   7
ATOM      7  S   UNL     1      -2.494   5.853   0.046  0.00  0.00    +0.000 S 
BRANCH   7   8
ATOM      8  C   UNL     1      -2.567   4.045   0.036  0.00  0.00    +0.000 C 
BRANCH   8   9
ATOM      9  C   UNL     1      -1.146   3.478   0.026  0.00  0.00    +0.000 C 
BRANCH   9  10
ATOM     10  O   UNL     1      -1.202   2.050   0.019  0.00  0.00    +0.000 OA
BRANCH  10  11
ATOM     11  C   UNL     1      -0.017   1.385   0.010  0.00  0.00    +0.000 A 
ATOM     12  C   UNL     1       1.176   2.092   0.002  0.00  0.00    +0.000 A 
ATOM     13  C   UNL     1       2.380   1.414  -0.014  0.00  0.00    +0.000 A 
ATOM     14  C   UNL     1       2.397   0.032  -0.021  0.00  0.00    +0.000 A 
ATOM     15  C   UNL     1       1.210  -0.677  -0.013  0.00  0.00    +0.000 A 
ATOM     16  C   UNL     1       0.002  -0.004   0.002  0.00  0.00    +0.000 A 
ATOM     17  F   UNL     1      -1.158  -0.696   0.009  0.00  0.00    +0.000 F 
ENDBRANCH  10  11
ENDBRANCH   9  10
ENDBRANCH   8   9
ENDBRANCH   7   8
ENDBRANCH   6   7
BRANCH   3  18
ATOM     18  C   UNL     1      -7.191   8.341   0.080  0.00  0.00    +0.000 C 
BRANCH  18  19
ATOM     19  C   UNL     1      -7.556   8.710  -1.359  0.00  0.00    +0.000 C 
BRANCH  19  20
ATOM     20  C   UNL     1      -8.618   9.779  -1.348  0.00  0.00    +0.000 C 
ATOM     21  O   UNL     1      -9.042  10.203  -0.294  0.00  0.00    +0.000 OA
ATOM     22  N   UNL     1      -9.098  10.264  -2.511  0.00  0.00    +0.000 N 
ATOM     23  H   UNL     1      -8.739   9.904  -3.406  0.00  0.00    +0.000 HD
ATOM     24  H   UNL     1      -9.825  10.994  -2.503  0.00  0.00    +0.000 HD
ENDBRANCH  19  20
ENDBRANCH  18  19
ENDBRANCH   3  18
TORSDOF 8
ENDMDL
MODEL      704
REMARK  Name = ZINC07315277
REMARK  10 active torsions:
REMARK  status: ('A' for Active; 'I' for Inactive)
REMARK    1  A    between atoms: C_1  and  C_2
REMARK    2  A    between atoms: C_2  and  C_3
REMARK    3  A    between atoms: C_3  and  C_4
REMARK    4  A    between atoms: C_4  and  C_5
REMARK    5  A    between atoms: C_5  and  N_6
REMARK    6  A    between atoms: C_7  and  C_9
REMARK    7  A    between atoms: C_9  and  S_10
REMARK    8  A    between atoms: S_10  and  C_11
REMARK    9  A    between atoms: C_14  and  C_17
REMARK   10  A    between atoms: N_15  and  N_16
REMARK                            x       y       z     vdW  Elec       q    Type
REMARK                         _______ _______ _______ _____ _____    ______ ____
ROOT
ATOM      1  C   UNL     1      -1.749   3.120   2.718  0.00  0.00    +0.000 A 
ATOM      2  N   UNL     1      -1.606   1.899   3.178  0.00  0.00    +0.000 NA
ATOM      3  N   UNL     1      -1.005   1.171   2.305  0.00  0.00    +0.000 NA
ATOM      4  C   UNL     1      -0.722   1.881   1.250  0.00  0.00    +0.000 A 
ATOM      5  N   UNL     1      -1.189   3.147   1.473  0.00  0.00    +0.000 N 
ENDROOT
BRANCH   4   6
ATOM      6  C   UNL     1      -0.017   1.395   0.010  0.00  0.00    +0.000 C 
ATOM      7  F   UNL     1       0.002  -0.004   0.002  0.00  0.00    +0.000 F 
ATOM      8  F   UNL     1       1.296   1.879  -0.000  0.00  0.00    +0.000 F 
ATOM      9  F   UNL     1      -0.694   1.858  -1.124  0.00  0.00    +0.000 F 
ENDBRANCH   4   6
BRANCH   5  10
ATOM     10  N   UNL     1      -1.111   4.216   0.626  0.00  0.00    +0.000 N 
ATOM     11  H   UNL     1      -1.526   5.087   0.987  0.00  0.00    +0.000 HD
ATOM     12  H   UNL     1      -0.674   4.175  -0.306  0.00  0.00    +0.000 HD
ENDBRANCH   5  10
BRANCH   1  13
ATOM     13  S   UNL     1      -2.518   4.470   3.550  0.00  0.00    +0.000 S 
BRANCH  13  14
ATOM     14  C   UNL     1      -2.989   3.658   5.097  0.00  0.00    +0.000 C 
BRANCH  14  16
ATOM     15  N   UNL     1      -4.126   4.266   7.208  0.00  0.00    +0.000 N 
ATOM     16  C   UNL     1      -3.684   4.650   5.994  0.00  0.00    +0.000 C 
ATOM     17  O   UNL     1      -3.844   5.793   5.623  0.00  0.00    +0.000 OA
ATOM     18  H   UNL     1      -3.990   3.295   7.523  0.00  0.00    +0.000 HD
BRANCH  15  19
ATOM     19  C   UNL     1      -4.802   5.231   8.079  0.00  0.00    +0.000 C 
BRANCH  19  20
ATOM     20  C   UNL     1      -5.200   4.545   9.387  0.00  0.00    +0.000 C 
BRANCH  20  21
ATOM     21  C   UNL     1      -5.906   5.552  10.298  0.00  0.00    +0.000 C 
BRANCH  21  23
ATOM     22  C   UNL     1      -7.009   5.873  12.516  0.00  0.00    +0.000 C 
ATOM     23  C   UNL     1      -6.304   4.865  11.606  0.00  0.00    +0.000 C 
ENDBRANCH  21  23
ENDBRANCH  20  21
ENDBRANCH  19  20
ENDBRANCH  15  19
ENDBRANCH  14  16
ENDBRANCH  13  14
ENDBRANCH   1  13
TORSDOF 9
ENDMDL
MODEL      705
REMARK  Name = ZINC23078114
REMARK  7 active torsions:
REMARK  status: ('A' for Active; 'I' for Inactive)
REMARK    1  A    between atoms: C_3  and  C_6
REMARK    2  A    between atoms: C_6  and  N_7
REMARK    3  A    between atoms: N_7  and  C_8
REMARK    4  A    between atoms: N_7  and  C_16
REMARK    5  A    between atoms: C_8  and  C_9
REMARK    6  A    between atoms: C_9  and  C_10
REMARK    7  A    between atoms: C_16  and  C_17
REMARK                            x       y       z     vdW  Elec       q    Type
REMARK                         _______ _______ _______ _____ _____    ______ ____
ROOT
ATOM      1  N   UNL     1      -4.816   1.680  -0.949  0.00  0.00    +0.000 N 
ATOM      2  H   UNL     1      -4.881   2.708  -0.938  0.00  0.00    +0.000 HD
ENDROOT
BRANCH   1   3
ATOM      3  C   UNL     1      -5.879   1.170  -1.825  0.00  0.00    +0.000 C 
BRANCH   3   4
ATOM      4  C   UNL     1      -5.769   1.834  -3.200  0.00  0.00    +0.000 C 
BRANCH   4   5
ATOM      5  C   UNL     1      -6.859   1.311  -4.099  0.00  0.00    +0.000 C 
ATOM      6  O   UNL     1      -7.646   0.488  -3.682  0.00  0.00    +0.000 OA
ATOM      7  N   UNL     1      -6.960   1.757  -5.366  0.00  0.00    +0.000 N 
ATOM      8  C   UNL     1      -7.935   1.289  -6.171  0.00  0.00    +0.000 C 
ATOM      9  O   UNL     1      -8.723   0.464  -5.753  0.00  0.00    +0.000 OA
ATOM     10  N   UNL     1      -8.035   1.736  -7.438  0.00  0.00    +0.000 N 
ATOM     11  H   UNL     1      -6.291   2.456  -5.721  0.00  0.00    +0.000 HD
ATOM     12  H   UNL     1      -7.367   2.435  -7.792  0.00  0.00    +0.000 HD
ATOM     13  H   UNL     1      -8.780   1.378  -8.053  0.00  0.00    +0.000 HD
ENDBRANCH   4   5
ENDBRANCH   3   4
ENDBRANCH   1   3
BRANCH   1  14
ATOM     14  C   UNL     1      -4.995   1.202   0.428  0.00  0.00    +0.000 C 
BRANCH  14  17
ATOM     15  C   UNL     1      -3.253   3.662   2.758  0.00  0.00    +0.000 A 
ATOM     16  C   UNL     1      -4.250   3.160   1.943  0.00  0.00    +0.000 A 
ATOM     17  C   UNL     1      -4.068   1.956   1.347  0.00  0.00    +0.000 A 
ATOM     18  S   UNL     1      -2.442   1.500   1.924  0.00  0.00    +0.000 S 
ATOM     19  C   UNL     1      -2.117   2.941   2.928  0.00  0.00    +0.000 A 
ENDBRANCH  14  17
ENDBRANCH   1  14
BRANCH   1  20
ATOM     20  C   UNL     1      -3.489   1.318  -1.464  0.00  0.00    +0.000 C 
BRANCH  20  21
ATOM     21  C   UNL     1      -3.318  -0.202  -1.406  0.00  0.00    +0.000 C 
ATOM     22  C   UNL     1      -1.873  -0.581  -1.784  0.00  0.00    +0.000 C 
ATOM     23  C   UNL     1      -2.033  -1.517  -3.007  0.00  0.00    +0.000 C 
ATOM     24  C   UNL     1      -3.499  -1.998  -2.858  0.00  0.00    +0.000 C 
ATOM     25  O   UNL     1      -4.188  -0.829  -2.364  0.00  0.00    +0.000 OA
ENDBRANCH  20  21
ENDBRANCH   1  20
TORSDOF 7
ENDMDL
MODEL      706
REMARK  Name = ZINC28900204
REMARK  13 active torsions:
REMARK  status: ('A' for Active; 'I' for Inactive)
REMARK    1  A    between atoms: C_1  and  C_2
REMARK    2  A    between atoms: C_2  and  C_3
REMARK    3  A    between atoms: C_2  and  C_4
REMARK    4  A    between atoms: C_2  and  N_5
REMARK    5  A    between atoms: C_6  and  C_8
REMARK    6  A    between atoms: C_8  and  N_9
REMARK    7  A    between atoms: N_9  and  C_10
REMARK    8  A    between atoms: N_9  and  C_11
REMARK    9  A    between atoms: C_11  and  C_12
REMARK   10  A    between atoms: C_12  and  C_13
REMARK   11  A    between atoms: N_15  and  C_16
REMARK   12  A    between atoms: C_21  and  O_22
REMARK   13  A    between atoms: O_22  and  C_23
REMARK                            x       y       z     vdW  Elec       q    Type
REMARK                         _______ _______ _______ _____ _____    ______ ____
ROOT
ATOM      1  C   UNL     1       2.457   1.003  -0.034  0.00  0.00    +0.000 C 
ENDROOT
BRANCH   1   2
ATOM      2  N   UNL     1       3.718   1.755  -0.054  0.00  0.00    +0.000 N 
ATOM      3  C   UNL     1       3.905   2.502   1.196  0.00  0.00    +0.000 C 
ATOM      4  H   UNL     1       3.669   2.436  -0.825  0.00  0.00    +0.000 HD
BRANCH   2   5
ATOM      5  C   UNL     1       4.858   0.864  -0.310  0.00  0.00    +0.000 C 
BRANCH   5   7
ATOM      6  N   UNL     1       7.267   1.082  -0.828  0.00  0.00    +0.000 N 
ATOM      7  C   UNL     1       6.093   1.689  -0.567  0.00  0.00    +0.000 C 
ATOM      8  O   UNL     1       6.029   2.900  -0.539  0.00  0.00    +0.000 OA
ATOM      9  H   UNL     1       7.321   0.053  -0.851  0.00  0.00    +0.000 HD
BRANCH   6  11
ATOM     10  C   UNL     1       8.764   2.752   0.147  0.00  0.00    +0.000 C 
ATOM     11  C   UNL     1       8.467   1.884  -1.077  0.00  0.00    +0.000 C 
ATOM     12  C   UNL     1       9.654   0.957  -1.344  0.00  0.00    +0.000 C 
ATOM     13  C   UNL     1       8.237   2.781  -2.295  0.00  0.00    +0.000 C 
ENDBRANCH   6  11
ENDBRANCH   5   7
ENDBRANCH   2   5
ENDBRANCH   1   2
BRANCH   1  14
ATOM     14  C   UNL     1       1.280   1.981  -0.016  0.00  0.00    +0.000 C 
BRANCH  14  15
ATOM     15  C   UNL     1      -0.014   1.209   0.005  0.00  0.00    +0.000 C 
ATOM     16  O   UNL     1       0.003  -0.004   0.004  0.00  0.00    +0.000 OA
ATOM     17  N   UNL     1      -1.191   1.867   0.018  0.00  0.00    +0.000 N 
ATOM     18  H   UNL     1      -1.206   2.893   0.104  0.00  0.00    +0.000 HD
BRANCH  17  19
ATOM     19  C   UNL     1      -2.393   1.154  -0.086  0.00  0.00    +0.000 A 
ATOM     20  C   UNL     1      -2.413  -0.090  -0.698  0.00  0.00    +0.000 A 
ATOM     21  C   UNL     1      -3.599  -0.793  -0.795  0.00  0.00    +0.000 A 
ATOM     22  C   UNL     1      -4.769  -0.254  -0.293  0.00  0.00    +0.000 A 
ATOM     23  C   UNL     1      -4.758   0.988   0.314  0.00  0.00    +0.000 A 
ATOM     24  C   UNL     1      -3.572   1.697   0.420  0.00  0.00    +0.000 A 
BRANCH  24  25
ATOM     25  O   UNL     1      -3.559   2.919   1.015  0.00  0.00    +0.000 OA
ATOM     26  C   UNL     1      -4.806   3.412   1.511  0.00  0.00    +0.000 C 
ENDBRANCH  24  25
ENDBRANCH  17  19
ENDBRANCH  14  15
ENDBRANCH   1  14
TORSDOF 8
ENDMDL
MODEL      707
REMARK  Name = ZINC31148232
REMARK  8 active torsions:
REMARK  status: ('A' for Active; 'I' for Inactive)
REMARK    1  A    between atoms: C_3  and  O_8
REMARK    2  A    between atoms: O_8  and  C_9
REMARK    3  A    between atoms: C_9  and  C_10
REMARK    4  A    between atoms: C_10  and  N_11
REMARK    5  A    between atoms: N_14  and  C_15
REMARK    6  A    between atoms: C_15  and  C_16
REMARK    7  A    between atoms: C_16  and  N_17
REMARK    8  A    between atoms: C_18  and  C_20
REMARK                            x       y       z     vdW  Elec       q    Type
REMARK                         _______ _______ _______ _____ _____    ______ ____
ROOT
ATOM      1  N   UNL     1      -4.817   0.106   1.276  0.00  0.00    +0.000 N 
ATOM      2  C   UNL     1      -5.792  -0.797   1.498  0.00  0.00    +0.000 C 
ATOM      3  O   UNL     1      -6.658  -0.975   0.664  0.00  0.00    +0.000 OA
ATOM      4  N   UNL     1      -5.807  -1.504   2.646  0.00  0.00    +0.000 N 
ATOM      5  H   UNL     1      -4.084   0.257   1.983  0.00  0.00    +0.000 HD
ATOM      6  H   UNL     1      -5.074  -1.353   3.353  0.00  0.00    +0.000 HD
ENDROOT
BRANCH   1   7
ATOM      7  C   UNL     1      -4.801   0.874   0.029  0.00  0.00    +0.000 C 
BRANCH   7   8
ATOM      8  C   UNL     1      -3.600   1.821   0.029  0.00  0.00    +0.000 C 
BRANCH   8   9
ATOM      9  O   UNL     1      -2.391   1.059   0.019  0.00  0.00    +0.000 OA
BRANCH   9  12
ATOM     10  C   UNL     1       1.175   1.783   0.000  0.00  0.00    +0.000 A 
ATOM     11  C   UNL     1      -0.013   1.076   0.008  0.00  0.00    +0.000 A 
ATOM     12  C   UNL     1      -1.223   1.753   0.017  0.00  0.00    +0.000 A 
ATOM     13  C   UNL     1      -1.240   3.140   0.031  0.00  0.00    +0.000 A 
ATOM     14  C   UNL     1      -0.049   3.845   0.022  0.00  0.00    +0.000 A 
ATOM     15  C   UNL     1       1.158   3.165   0.008  0.00  0.00    +0.000 A 
ATOM     16  F   UNL     1      -0.064   5.195   0.029  0.00  0.00    +0.000 F 
ENDBRANCH   9  12
ENDBRANCH   8   9
ENDBRANCH   7   8
ENDBRANCH   1   7
BRANCH   4  17
ATOM     17  C   UNL     1      -6.867  -2.486   2.888  0.00  0.00    +0.000 C 
BRANCH  17  18
ATOM     18  C   UNL     1      -6.652  -3.143   4.253  0.00  0.00    +0.000 C 
BRANCH  18  19
ATOM     19  N   UNL     1      -7.712  -4.125   4.494  0.00  0.00    +0.000 N 
ATOM     20  C   UNL     1      -7.727  -4.832   5.642  0.00  0.00    +0.000 C 
ATOM     21  O   UNL     1      -6.860  -4.654   6.478  0.00  0.00    +0.000 OA
ATOM     22  H   UNL     1      -8.445  -4.276   3.787  0.00  0.00    +0.000 HD
BRANCH  20  23
ATOM     23  C   UNL     1      -8.788  -5.815   5.884  0.00  0.00    +0.000 A 
ATOM     24  C   UNL     1      -8.921  -6.594   6.997  0.00  0.00    +0.000 A 
ATOM     25  C   UNL     1     -10.067  -7.381   6.805  0.00  0.00    +0.000 A 
ATOM     26  C   UNL     1     -10.577  -7.052   5.597  0.00  0.00    +0.000 A 
ATOM     27  O   UNL     1      -9.806  -6.104   5.048  0.00  0.00    +0.000 OA
ENDBRANCH  20  23
ENDBRANCH  18  19
ENDBRANCH  17  18
ENDBRANCH   4  17
TORSDOF 8
ENDMDL
MODEL      708
REMARK  Name = ZINC19786946
REMARK  12 active torsions:
REMARK  status: ('A' for Active; 'I' for Inactive)
REMARK    1  A    between atoms: C_1  and  C_2
REMARK    2  A    between atoms: C_2  and  C_3
REMARK    3  A    between atoms: C_2  and  C_4
REMARK    4  A    between atoms: C_4  and  C_5
REMARK    5  A    between atoms: C_4  and  N_22
REMARK    6  A    between atoms: C_8  and  C_10
REMARK    7  A    between atoms: C_10  and  O_11
REMARK    8  A    between atoms: O_11  and  C_12
REMARK    9  A    between atoms: C_13  and  O_20
REMARK   10  A    between atoms: C_17  and  O_18
REMARK   11  A    between atoms: O_18  and  C_19
REMARK   12  A    between atoms: O_20  and  C_21
REMARK                            x       y       z     vdW  Elec       q    Type
REMARK                         _______ _______ _______ _____ _____    ______ ____
ROOT
ATOM      1  C   UNL     1      -0.016   1.298   0.009  0.00  0.00    +0.000 A 
ATOM      2  N   UNL     1       0.002  -0.004   0.002  0.00  0.00    +0.000 NA
ATOM      3  N   UNL     1       1.222  -0.414  -0.012  0.00  0.00    +0.000 NA
ATOM      4  C   UNL     1       2.023   0.612  -0.014  0.00  0.00    +0.000 A 
ATOM      5  O   UNL     1       1.261   1.718  -0.001  0.00  0.00    +0.000 OA
ENDROOT
BRANCH   4   6
ATOM      6  C   UNL     1       3.530   0.568  -0.029  0.00  0.00    +0.000 C 
BRANCH   6   7
ATOM      7  O   UNL     1       3.993   0.560  -1.380  0.00  0.00    +0.000 OA
BRANCH   7   8
ATOM      8  C   UNL     1       5.340   0.521  -1.572  0.00  0.00    +0.000 A 
ATOM      9  C   UNL     1       6.064   1.703  -1.670  0.00  0.00    +0.000 A 
ATOM     10  C   UNL     1       7.437   1.659  -1.859  0.00  0.00    +0.000 A 
ATOM     11  C   UNL     1       8.084   0.441  -1.962  0.00  0.00    +0.000 A 
ATOM     12  C   UNL     1       7.366  -0.737  -1.870  0.00  0.00    +0.000 A 
ATOM     13  C   UNL     1       5.993  -0.701  -1.675  0.00  0.00    +0.000 A 
BRANCH  13  14
ATOM     14  O   UNL     1       5.288  -1.860  -1.585  0.00  0.00    +0.000 OA
ATOM     15  C   UNL     1       6.026  -3.079  -1.701  0.00  0.00    +0.000 C 
ENDBRANCH  13  14
BRANCH   9  16
ATOM     16  O   UNL     1       5.428   2.901  -1.575  0.00  0.00    +0.000 OA
ATOM     17  C   UNL     1       6.236   4.075  -1.685  0.00  0.00    +0.000 C 
ENDBRANCH   9  16
ENDBRANCH   7   8
ENDBRANCH   6   7
ENDBRANCH   4   6
BRANCH   1  18
ATOM     18  C   UNL     1      -1.242   2.174   0.020  0.00  0.00    +0.000 C 
BRANCH  18  19
ATOM     19  N   UNL     1      -2.205   1.656   1.002  0.00  0.00    +0.000 N 
ATOM     20  H   UNL     1      -2.472   0.694   0.748  0.00  0.00    +0.000 HD
ATOM     21  H   UNL     1      -3.043   2.254   1.010  0.00  0.00    +0.000 HD
ATOM     22  H   UNL     1      -1.775   1.656   1.938  0.00  0.00    +0.000 HD
ENDBRANCH  18  19
BRANCH  18  24
ATOM     23  C   UNL     1      -2.390   0.767  -1.697  0.00  0.00    +0.000 C 
ATOM     24  C   UNL     1      -1.882   2.173  -1.370  0.00  0.00    +0.000 C 
ATOM     25  C   UNL     1      -3.053   3.157  -1.393  0.00  0.00    +0.000 C 
ENDBRANCH  18  24
ENDBRANCH   1  18
TORSDOF 8
ENDMDL
MODEL      709
REMARK  Name = ZINC29462525
REMARK  12 active torsions:
REMARK  status: ('A' for Active; 'I' for Inactive)
REMARK    1  A    between atoms: C_1  and  C_2
REMARK    2  A    between atoms: C_2  and  C_3
REMARK    3  A    between atoms: C_3  and  C_4
REMARK    4  A    between atoms: C_3  and  C_6
REMARK    5  A    between atoms: C_4  and  C_5
REMARK    6  A    between atoms: N_9  and  C_12
REMARK    7  A    between atoms: C_12  and  C_13
REMARK    8  A    between atoms: C_12  and  C_14
REMARK    9  A    between atoms: N_19  and  C_20
REMARK   10  A    between atoms: C_20  and  C_21
REMARK   11  A    between atoms: C_21  and  O_22
REMARK   12  A    between atoms: O_22  and  C_23
REMARK                            x       y       z     vdW  Elec       q    Type
REMARK                         _______ _______ _______ _____ _____    ______ ____
ROOT
ATOM      1  C   UNL     1      -1.213   3.508   0.027  0.00  0.00    +0.000 C 
ATOM      2  C   UNL     1      -0.493   4.021   1.276  0.00  0.00    +0.000 C 
ENDROOT
BRANCH   1   3
ATOM      3  C   UNL     1      -1.192   2.002   0.019  0.00  0.00    +0.000 C 
ATOM      4  O   UNL     1      -2.234   1.381   0.020  0.00  0.00    +0.000 OA
ATOM      5  N   UNL     1      -0.016   1.344   0.009  0.00  0.00    +0.000 N 
ATOM      6  C   UNL     1       0.002  -0.004   0.002  0.00  0.00    +0.000 C 
ATOM      7  O   UNL     1      -1.042  -0.626   0.009  0.00  0.00    +0.000 OA
ATOM      8  N   UNL     1       1.178  -0.662  -0.013  0.00  0.00    +0.000 N 
ATOM      9  H   UNL     1       0.869   1.871   0.008  0.00  0.00    +0.000 HD
ATOM     10  H   UNL     1       2.063  -0.135  -0.018  0.00  0.00    +0.000 HD
BRANCH   8  11
ATOM     11  C   UNL     1       1.198  -2.127  -0.021  0.00  0.00    +0.000 C 
BRANCH  11  12
ATOM     12  C   UNL     1       2.647  -2.617  -0.037  0.00  0.00    +0.000 C 
BRANCH  12  13
ATOM     13  O   UNL     1       3.293  -2.237   1.180  0.00  0.00    +0.000 OA
ATOM     14  C   UNL     1       4.658  -2.649   1.267  0.00  0.00    +0.000 C 
ENDBRANCH  12  13
ENDBRANCH  11  12
ENDBRANCH   8  11
ENDBRANCH   1   3
BRANCH   1  18
ATOM     15  C   UNL     1      -5.190   4.853   0.052  0.00  0.00    +0.000 A 
ATOM     16  C   UNL     1      -4.332   5.195  -0.981  0.00  0.00    +0.000 A 
ATOM     17  C   UNL     1      -3.029   4.735  -0.955  0.00  0.00    +0.000 A 
ATOM     18  N   UNL     1      -2.601   3.978   0.036  0.00  0.00    +0.000 N 
ATOM     19  C   UNL     1      -3.390   3.628   1.033  0.00  0.00    +0.000 A 
ATOM     20  C   UNL     1      -4.704   4.056   1.077  0.00  0.00    +0.000 A 
BRANCH  15  21
ATOM     21  C   UNL     1      -6.618   5.335   0.061  0.00  0.00    +0.000 C 
BRANCH  21  22
ATOM     22  C   UNL     1      -6.864   6.175   1.317  0.00  0.00    +0.000 C 
ATOM     23  C   UNL     1      -6.009   7.442   1.258  0.00  0.00    +0.000 C 
ENDBRANCH  21  22
BRANCH  21  25
ATOM     24  C   UNL     1      -9.008   4.619  -0.057  0.00  0.00    +0.000 C 
ATOM     25  C   UNL     1      -7.563   4.132   0.059  0.00  0.00    +0.000 C 
ENDBRANCH  21  25
ENDBRANCH  15  21
ENDBRANCH   1  18
TORSDOF 8
ENDMDL
MODEL      710
REMARK  Name = ZINC12398420
REMARK  9 active torsions:
REMARK  status: ('A' for Active; 'I' for Inactive)
REMARK    1  A    between atoms: C_1  and  C_2
REMARK    2  A    between atoms: C_4  and  C_19
REMARK    3  A    between atoms: N_6  and  C_7
REMARK    4  A    between atoms: C_7  and  C_8
REMARK    5  A    between atoms: C_8  and  C_9
REMARK    6  A    between atoms: C_11  and  C_14
REMARK    7  A    between atoms: N_16  and  C_17
REMARK    8  A    between atoms: C_17  and  C_18
REMARK    9  A    between atoms: C_18  and  N_23
REMARK                            x       y       z     vdW  Elec       q    Type
REMARK                         _______ _______ _______ _____ _____    ______ ____
ROOT
ATOM      1  C   UNL     1       1.271   1.692  -0.001  0.00  0.00    +0.000 A 
ATOM      2  N   UNL     1      -0.016   1.314   0.009  0.00  0.00    +0.000 NA
ATOM      3  C   UNL     1       0.002  -0.004   0.002  0.00  0.00    +0.000 A 
ATOM      4  O   UNL     1       1.292  -0.372  -0.012  0.00  0.00    +0.000 OA
ATOM      5  N   UNL     1       1.998   0.614  -0.014  0.00  0.00    +0.000 NA
ENDROOT
BRANCH   3   6
ATOM      6  C   UNL     1      -1.175  -0.905   0.009  0.00  0.00    +0.000 C 
ATOM      7  O   UNL     1      -2.297  -0.438   0.022  0.00  0.00    +0.000 OA
ATOM      8  N   UNL     1      -1.001  -2.241   0.000  0.00  0.00    +0.000 N 
ATOM      9  H   UNL     1      -0.050  -2.637  -0.011  0.00  0.00    +0.000 HD
BRANCH   8  10
ATOM     10  C   UNL     1      -2.165  -3.132   0.007  0.00  0.00    +0.000 C 
BRANCH  10  11
ATOM     11  C   UNL     1      -1.693  -4.587  -0.006  0.00  0.00    +0.000 C 
BRANCH  11  12
ATOM     12  N   UNL     1      -2.871  -5.473  -0.021  0.00  0.00    +0.000 N 
ATOM     13  H   UNL     1      -3.434  -5.289  -0.863  0.00  0.00    +0.000 HD
ATOM     14  H   UNL     1      -3.443  -5.306   0.819  0.00  0.00    +0.000 HD
ATOM     15  H   UNL     1      -2.558  -6.454  -0.029  0.00  0.00    +0.000 HD
ENDBRANCH  11  12
ENDBRANCH  10  11
ENDBRANCH   8  10
ENDBRANCH   3   6
BRANCH   1  16
ATOM     16  C   UNL     1       1.781   3.110   0.001  0.00  0.00    +0.000 C 
BRANCH  16  17
ATOM     17  C   UNL     1       1.967   3.583   1.444  0.00  0.00    +0.000 C 
BRANCH  17  23
ATOM     18  C   UNL     1       0.200   6.130   1.471  0.00  0.00    +0.000 C 
ATOM     19  C   UNL     1       1.706   6.078   1.458  0.00  0.00    +0.000 A 
ATOM     20  C   UNL     1       2.541   7.143   1.455  0.00  0.00    +0.000 A 
ATOM     21  C   UNL     1       3.854   6.661   1.441  0.00  0.00    +0.000 A 
ATOM     22  N   UNL     1       3.809   5.353   1.441  0.00  0.00    +0.000 NA
ATOM     23  N   UNL     1       2.464   4.962   1.446  0.00  0.00    +0.000 N 
BRANCH  21  24
ATOM     24  C   UNL     1       5.104   7.502   1.434  0.00  0.00    +0.000 C 
ATOM     25  F   UNL     1       5.503   7.756   2.751  0.00  0.00    +0.000 F 
ATOM     26  F   UNL     1       6.122   6.818   0.762  0.00  0.00    +0.000 F 
ATOM     27  F   UNL     1       4.847   8.713   0.783  0.00  0.00    +0.000 F 
ENDBRANCH  21  24
ENDBRANCH  17  23
ENDBRANCH  16  17
ENDBRANCH   1  16
TORSDOF 8
ENDMDL
MODEL      711
REMARK  Name = ZINC31093825
REMARK  7 active torsions:
REMARK  status: ('A' for Active; 'I' for Inactive)
REMARK    1  A    between atoms: C_1  and  C_2
REMARK    2  A    between atoms: N_10  and  C_11
REMARK    3  A    between atoms: C_11  and  C_12
REMARK    4  A    between atoms: C_12  and  C_13
REMARK    5  A    between atoms: C_13  and  C_14
REMARK    6  A    between atoms: C_14  and  N_15
REMARK    7  A    between atoms: C_18  and  C_21
REMARK                            x       y       z     vdW  Elec       q    Type
REMARK                         _______ _______ _______ _____ _____    ______ ____
ROOT
ATOM      1  C   UNL     1      -5.992  -1.684   0.020  0.00  0.00    +0.000 C 
ENDROOT
BRANCH   1   2
ATOM      2  C   UNL     1      -4.468  -1.542   0.014  0.00  0.00    +0.000 C 
BRANCH   2  12
ATOM      3  C   UNL     1       2.500   1.546  -0.013  0.00  0.00    +0.000 C 
ATOM      4  C   UNL     1       1.041   1.923   0.002  0.00  0.00    +0.000 A 
ATOM      5  C   UNL     1      -0.013   1.076   0.008  0.00  0.00    +0.000 A 
ATOM      6  C   UNL     1      -1.143   1.935   0.017  0.00  0.00    +0.000 A 
ATOM      7  N   UNL     1      -0.674   3.155   0.024  0.00  0.00    +0.000 NA
ATOM      8  O   UNL     1       0.535   3.165   0.013  0.00  0.00    +0.000 OA
ATOM      9  N   UNL     1      -2.485   1.554   0.021  0.00  0.00    +0.000 N 
ATOM     10  C   UNL     1      -2.814   0.247   0.016  0.00  0.00    +0.000 C 
ATOM     11  O   UNL     1      -1.942  -0.600   0.008  0.00  0.00    +0.000 OA
ATOM     12  N   UNL     1      -4.111  -0.121   0.020  0.00  0.00    +0.000 N 
ATOM     13  H   UNL     1      -3.224   2.271   0.028  0.00  0.00    +0.000 HD
ATOM     14  H   UNL     1      -4.850   0.596   0.026  0.00  0.00    +0.000 HD
ENDBRANCH   2  12
ENDBRANCH   1   2
BRANCH   1  15
ATOM     15  C   UNL     1      -6.365  -3.168   0.015  0.00  0.00    +0.000 C 
BRANCH  15  16
ATOM     16  C   UNL     1      -7.889  -3.310   0.021  0.00  0.00    +0.000 C 
BRANCH  16  17
ATOM     17  N   UNL     1      -8.248  -4.734   0.015  0.00  0.00    +0.000 N 
ATOM     18  C   UNL     1      -7.445  -5.483   0.991  0.00  0.00    +0.000 C 
ATOM     19  C   UNL     1      -7.740  -6.979   0.856  0.00  0.00    +0.000 C 
ATOM     20  C   UNL     1      -9.232  -7.223   1.099  0.00  0.00    +0.000 C 
ATOM     21  C   UNL     1     -10.047  -6.395   0.102  0.00  0.00    +0.000 C 
ATOM     22  C   UNL     1      -9.684  -4.916   0.258  0.00  0.00    +0.000 C 
ATOM     23  H   UNL     1      -8.037  -5.112  -0.920  0.00  0.00    +0.000 HD
BRANCH  20  24
ATOM     24  C   UNL     1      -9.540  -8.686   0.909  0.00  0.00    +0.000 C 
ATOM     25  O   UNL     1     -10.333  -9.033   0.059  0.00  0.00    +0.000 OA
ATOM     26  N   UNL     1      -8.935  -9.608   1.683  0.00  0.00    +0.000 N 
ATOM     27  H   UNL     1      -8.261  -9.314   2.404  0.00  0.00    +0.000 HD
ATOM     28  H   UNL     1      -9.145 -10.608   1.553  0.00  0.00    +0.000 HD
ENDBRANCH  20  24
ENDBRANCH  16  17
ENDBRANCH  15  16
ENDBRANCH   1  15
TORSDOF 6
ENDMDL
MODEL      712
REMARK  Name = ZINC23082425
REMARK  11 active torsions:
REMARK  status: ('A' for Active; 'I' for Inactive)
REMARK    1  A    between atoms: C_1  and  C_2
REMARK    2  A    between atoms: C_5  and  O_20
REMARK    3  A    between atoms: C_6  and  C_8
REMARK    4  A    between atoms: C_8  and  N_9
REMARK    5  A    between atoms: N_9  and  C_10
REMARK    6  A    between atoms: C_11  and  C_13
REMARK    7  A    between atoms: C_13  and  C_14
REMARK    8  A    between atoms: C_14  and  S_15
REMARK    9  A    between atoms: S_15  and  C_16
REMARK   10  A    between atoms: C_16  and  C_17
REMARK   11  A    between atoms: O_20  and  C_21
REMARK                            x       y       z     vdW  Elec       q    Type
REMARK                         _______ _______ _______ _____ _____    ______ ____
ROOT
ATOM      1  N   UNL     1       2.979   4.001  -1.365  0.00  0.00    +0.000 N 
ATOM      2  C   UNL     1       2.600   5.099  -2.256  0.00  0.00    +0.000 C 
ATOM      3  C   UNL     1       3.816   3.038  -1.800  0.00  0.00    +0.000 C 
ATOM      4  O   UNL     1       4.130   2.128  -1.062  0.00  0.00    +0.000 OA
ENDROOT
BRANCH   3   5
ATOM      5  C   UNL     1       4.361   3.091  -3.204  0.00  0.00    +0.000 C 
BRANCH   5   6
ATOM      6  C   UNL     1       5.278   1.890  -3.442  0.00  0.00    +0.000 C 
BRANCH   6   7
ATOM      7  S   UNL     1       5.934   1.955  -5.131  0.00  0.00    +0.000 S 
BRANCH   7   8
ATOM      8  C   UNL     1       6.987   0.482  -5.250  0.00  0.00    +0.000 C 
BRANCH   8   9
ATOM      9  C   UNL     1       7.603   0.414  -6.624  0.00  0.00    +0.000 C 
ATOM     10  O   UNL     1       7.356   1.275  -7.442  0.00  0.00    +0.000 OA
ATOM     11  N   UNL     1       8.428  -0.602  -6.943  0.00  0.00    +0.000 N 
ATOM     12  H   UNL     1       8.638  -1.333  -6.248  0.00  0.00    +0.000 HD
ATOM     13  H   UNL     1       8.849  -0.649  -7.882  0.00  0.00    +0.000 HD
ENDBRANCH   8   9
ENDBRANCH   7   8
ENDBRANCH   6   7
ENDBRANCH   5   6
ENDBRANCH   3   5
BRANCH   1  14
ATOM     14  C   UNL     1       2.449   3.948  -0.000  0.00  0.00    +0.000 C 
BRANCH  14  20
ATOM     15  C   UNL     1      -2.553   3.867   0.046  0.00  0.00    +0.000 C 
ATOM     16  C   UNL     1      -1.237   3.133   0.030  0.00  0.00    +0.000 A 
ATOM     17  C   UNL     1      -1.218   1.751   0.017  0.00  0.00    +0.000 A 
ATOM     18  C   UNL     1      -0.013   1.076   0.008  0.00  0.00    +0.000 A 
ATOM     19  C   UNL     1       1.179   1.786   0.000  0.00  0.00    +0.000 A 
ATOM     20  C   UNL     1       1.157   3.173   0.008  0.00  0.00    +0.000 A 
ATOM     21  C   UNL     1      -0.051   3.844   0.022  0.00  0.00    +0.000 A 
BRANCH  19  22
ATOM     22  O   UNL     1       2.366   1.125  -0.015  0.00  0.00    +0.000 OA
ATOM     23  C   UNL     1       2.313  -0.303  -0.022  0.00  0.00    +0.000 C 
ENDBRANCH  19  22
ENDBRANCH  14  20
ENDBRANCH   1  14
TORSDOF 8
ENDMDL
MODEL      713
REMARK  Name = ZINC19769813
REMARK  11 active torsions:
REMARK  status: ('A' for Active; 'I' for Inactive)
REMARK    1  A    between atoms: C_1  and  C_2
REMARK    2  A    between atoms: C_2  and  C_3
REMARK    3  A    between atoms: C_3  and  C_4
REMARK    4  A    between atoms: C_4  and  N_5
REMARK    5  A    between atoms: N_5  and  C_6
REMARK    6  A    between atoms: C_7  and  C_9
REMARK    7  A    between atoms: C_9  and  N_10
REMARK    8  A    between atoms: C_13  and  C_21
REMARK    9  A    between atoms: C_21  and  C_22
REMARK   10  A    between atoms: C_21  and  N_24
REMARK   11  A    between atoms: C_22  and  C_23
REMARK                            x       y       z     vdW  Elec       q    Type
REMARK                         _______ _______ _______ _____ _____    ______ ____
ROOT
ATOM      1  N   UNL     1       0.002  -0.004   0.002  0.00  0.00    +0.000 N 
ATOM      2  C   UNL     1       1.238  -0.667   0.022  0.00  0.00    +0.000 A 
ATOM      3  C   UNL     1       1.325  -2.011  -0.301  0.00  0.00    +0.000 A 
ATOM      4  C   UNL     1       2.554  -2.646  -0.274  0.00  0.00    +0.000 A 
ATOM      5  C   UNL     1       3.692  -1.943   0.075  0.00  0.00    +0.000 A 
ATOM      6  C   UNL     1       3.611  -0.601   0.399  0.00  0.00    +0.000 A 
ATOM      7  C   UNL     1       2.385   0.042   0.374  0.00  0.00    +0.000 A 
ATOM      8  O   UNL     1       2.287   1.361   0.688  0.00  0.00    +0.000 OA
ATOM      9  C   UNL     1       1.282   2.112   0.001  0.00  0.00    +0.000 C 
ATOM     10  C   UNL     1      -0.016   1.347   0.009  0.00  0.00    +0.000 C 
ATOM     11  O   UNL     1      -1.073   1.941   0.018  0.00  0.00    +0.000 OA
ENDROOT
BRANCH   4  12
ATOM     12  C   UNL     1       2.652  -4.107  -0.626  0.00  0.00    +0.000 C 
BRANCH  12  13
ATOM     13  N   UNL     1       3.861  -4.338  -1.428  0.00  0.00    +0.000 N 
ATOM     14  H   UNL     1       4.691  -4.060  -0.887  0.00  0.00    +0.000 HD
ATOM     15  H   UNL     1       3.812  -3.780  -2.292  0.00  0.00    +0.000 HD
ATOM     16  H   UNL     1       3.928  -5.337  -1.669  0.00  0.00    +0.000 HD
ENDBRANCH  12  13
BRANCH  12  17
ATOM     17  C   UNL     1       2.725  -4.938   0.657  0.00  0.00    +0.000 C 
ATOM     18  C   UNL     1       2.699  -6.426   0.304  0.00  0.00    +0.000 C 
ENDBRANCH  12  17
ENDBRANCH   4  12
BRANCH   1  19
ATOM     19  C   UNL     1      -1.250  -0.765  -0.026  0.00  0.00    +0.000 C 
BRANCH  19  22
ATOM     20  N   UNL     1      -2.779  -1.704  -1.729  0.00  0.00    +0.000 N 
ATOM     21  C   UNL     1      -3.614  -2.205  -0.634  0.00  0.00    +0.000 C 
ATOM     22  C   UNL     1      -1.652  -1.017  -1.457  0.00  0.00    +0.000 C 
ATOM     23  O   UNL     1      -0.961  -0.603  -2.363  0.00  0.00    +0.000 OA
BRANCH  20  24
ATOM     24  C   UNL     1      -3.170  -1.950  -3.119  0.00  0.00    +0.000 C 
BRANCH  24  25
ATOM     25  C   UNL     1      -2.557  -3.268  -3.596  0.00  0.00    +0.000 C 
BRANCH  25  27
ATOM     26  C   UNL     1      -2.352  -4.843  -5.525  0.00  0.00    +0.000 C 
ATOM     27  C   UNL     1      -2.965  -3.524  -5.048  0.00  0.00    +0.000 C 
ENDBRANCH  25  27
ENDBRANCH  24  25
ENDBRANCH  20  24
ENDBRANCH  19  22
ENDBRANCH   1  19
TORSDOF 8
ENDMDL
MODEL      714
REMARK  Name = ZINC28917736
REMARK  10 active torsions:
REMARK  status: ('A' for Active; 'I' for Inactive)
REMARK    1  A    between atoms: C_1  and  C_2
REMARK    2  A    between atoms: C_2  and  C_3
REMARK    3  A    between atoms: C_2  and  N_13
REMARK    4  A    between atoms: C_7  and  N_9
REMARK    5  A    between atoms: C_10  and  C_12
REMARK    6  A    between atoms: N_13  and  C_14
REMARK    7  A    between atoms: C_14  and  C_15
REMARK    8  A    between atoms: C_15  and  C_16
REMARK    9  A    between atoms: C_15  and  O_23
REMARK   10  A    between atoms: C_16  and  N_17
REMARK                            x       y       z     vdW  Elec       q    Type
REMARK                         _______ _______ _______ _____ _____    ______ ____
ROOT
ATOM      1  N   UNL     1      -7.073   0.957   0.464  0.00  0.00    +0.000 N 
ATOM      2  H   UNL     1      -7.462   0.177  -0.085  0.00  0.00    +0.000 HD
ATOM      3  H   UNL     1      -6.608   0.575   1.300  0.00  0.00    +0.000 HD
ENDROOT
BRANCH   1   5
ATOM      4  C   UNL     1      -6.549   1.696  -1.811  0.00  0.00    +0.000 C 
ATOM      5  C   UNL     1      -6.090   1.681  -0.352  0.00  0.00    +0.000 C 
BRANCH   5   6
ATOM      6  C   UNL     1      -4.752   0.994  -0.254  0.00  0.00    +0.000 A 
ATOM      7  C   UNL     1      -4.684  -0.388  -0.254  0.00  0.00    +0.000 A 
ATOM      8  C   UNL     1      -3.458  -1.022  -0.164  0.00  0.00    +0.000 A 
ATOM      9  C   UNL     1      -2.298  -0.278  -0.079  0.00  0.00    +0.000 A 
ATOM     10  C   UNL     1      -2.364   1.109  -0.073  0.00  0.00    +0.000 A 
ATOM     11  C   UNL     1      -3.596   1.744  -0.164  0.00  0.00    +0.000 A 
BRANCH  10  12
ATOM     12  N   UNL     1      -1.191   1.867   0.018  0.00  0.00    +0.000 N 
ATOM     13  C   UNL     1      -0.146   1.407   0.735  0.00  0.00    +0.000 C 
ATOM     14  O   UNL     1      -0.256   0.386   1.380  0.00  0.00    +0.000 OA
ATOM     15  C   UNL     1       1.159   2.160   0.732  0.00  0.00    +0.000 C 
ATOM     16  H   UNL     1      -1.125   2.775  -0.464  0.00  0.00    +0.000 HD
ENDBRANCH  10  12
ENDBRANCH   5   6
ENDBRANCH   1   5
BRANCH   1  17
ATOM     17  C   UNL     1      -8.166   1.845   0.883  0.00  0.00    +0.000 C 
BRANCH  17  18
ATOM     18  C   UNL     1      -9.168   1.057   1.729  0.00  0.00    +0.000 C 
BRANCH  18  19
ATOM     19  O   UNL     1      -8.539   0.633   2.941  0.00  0.00    +0.000 OA
ATOM     20  H   UNL     1      -8.231   1.425   3.448  0.00  0.00    +0.000 HD
ENDBRANCH  18  19
BRANCH  18  21
ATOM     21  C   UNL     1     -10.367   1.948   2.061  0.00  0.00    +0.000 C 
BRANCH  21  22
ATOM     22  N   UNL     1     -11.329   1.192   2.873  0.00  0.00    +0.000 NA
ATOM     23  C   UNL     1     -11.922   0.092   2.099  0.00  0.00    +0.000 C 
ATOM     24  C   UNL     1     -12.871  -0.705   2.998  0.00  0.00    +0.000 C 
ATOM     25  O   UNL     1     -13.862   0.176   3.535  0.00  0.00    +0.000 OA
ATOM     26  C   UNL     1     -13.319   1.258   4.296  0.00  0.00    +0.000 C 
ATOM     27  C   UNL     1     -12.375   2.075   3.410  0.00  0.00    +0.000 C 
ENDBRANCH  21  22
ENDBRANCH  18  21
ENDBRANCH  17  18
ENDBRANCH   1  17
TORSDOF 8
ENDMDL
MODEL      715
REMARK  Name = ZINC31768924
REMARK  9 active torsions:
REMARK  status: ('A' for Active; 'I' for Inactive)
REMARK    1  A    between atoms: C_1  and  C_2
REMARK    2  A    between atoms: C_2  and  C_3
REMARK    3  A    between atoms: C_3  and  N_4
REMARK    4  A    between atoms: C_5  and  N_9
REMARK    5  A    between atoms: C_10  and  C_12
REMARK    6  A    between atoms: C_12  and  C_13
REMARK    7  A    between atoms: C_13  and  N_14
REMARK    8  A    between atoms: C_15  and  C_17
REMARK    9  A    between atoms: C_18  and  C_19
REMARK                            x       y       z     vdW  Elec       q    Type
REMARK                         _______ _______ _______ _____ _____    ______ ____
ROOT
ATOM      1  C   UNL     1       1.684   5.813   1.896  0.00  0.00    +0.000 C 
ENDROOT
BRANCH   1   3
ATOM      2  N   UNL     1       0.507   3.669   1.523  0.00  0.00    +0.000 N 
ATOM      3  C   UNL     1       0.651   4.781   2.271  0.00  0.00    +0.000 C 
ATOM      4  O   UNL     1      -0.050   4.951   3.245  0.00  0.00    +0.000 OA
ATOM      5  H   UNL     1       1.103   3.524   0.696  0.00  0.00    +0.000 HD
BRANCH   2   7
ATOM      6  N   UNL     1      -0.698   1.558   1.213  0.00  0.00    +0.000 N 
ATOM      7  C   UNL     1      -0.448   2.714   1.870  0.00  0.00    +0.000 A 
ATOM      8  C   UNL     1      -1.300   2.777   2.930  0.00  0.00    +0.000 A 
ATOM      9  C   UNL     1      -2.083   1.620   2.918  0.00  0.00    +0.000 A 
ATOM     10  N   UNL     1      -1.725   0.890   1.893  0.00  0.00    +0.000 NA
BRANCH   6  11
ATOM     11  C   UNL     1      -0.013   1.086   0.008  0.00  0.00    +0.000 C 
BRANCH  11  13
ATOM     12  C   UNL     1      -0.037   1.099  -2.490  0.00  0.00    +0.000 C 
ATOM     13  C   UNL     1      -0.753   1.593  -1.232  0.00  0.00    +0.000 C 
ENDBRANCH  11  13
ENDBRANCH   6  11
ENDBRANCH   2   7
ENDBRANCH   1   3
BRANCH   1  14
ATOM     14  C   UNL     1       1.640   6.966   2.900  0.00  0.00    +0.000 C 
BRANCH  14  15
ATOM     15  N   UNL     1       2.644   7.969   2.535  0.00  0.00    +0.000 N 
ATOM     16  C   UNL     1       2.788   9.081   3.283  0.00  0.00    +0.000 C 
ATOM     17  O   UNL     1       2.084   9.252   4.261  0.00  0.00    +0.000 OA
ATOM     18  H   UNL     1       3.240   7.824   1.708  0.00  0.00    +0.000 HD
BRANCH  16  19
ATOM     19  C   UNL     1       3.758  10.050   2.931  0.00  0.00    +0.000 C 
ATOM     20  C   UNL     1       3.902  11.169   3.683  0.00  0.00    +0.000 C 
BRANCH  20  21
ATOM     21  C   UNL     1       4.872  12.139   3.330  0.00  0.00    +0.000 A 
ATOM     22  C   UNL     1       5.122  13.319   3.999  0.00  0.00    +0.000 A 
ATOM     23  C   UNL     1       6.160  13.960   3.305  0.00  0.00    +0.000 A 
ATOM     24  C   UNL     1       6.489  13.169   2.259  0.00  0.00    +0.000 A 
ATOM     25  O   UNL     1       5.714  12.075   2.277  0.00  0.00    +0.000 OA
ENDBRANCH  20  21
ENDBRANCH  16  19
ENDBRANCH  14  15
ENDBRANCH   1  14
TORSDOF 8
ENDMDL
MODEL      716
REMARK  Name = ZINC29574719
REMARK  11 active torsions:
REMARK  status: ('A' for Active; 'I' for Inactive)
REMARK    1  A    between atoms: C_1  and  C_2
REMARK    2  A    between atoms: C_2  and  C_3
REMARK    3  A    between atoms: C_2  and  C_4
REMARK    4  A    between atoms: C_2  and  C_5
REMARK    5  A    between atoms: N_7  and  C_8
REMARK    6  A    between atoms: C_8  and  C_9
REMARK    7  A    between atoms: N_11  and  N_12
REMARK    8  A    between atoms: N_12  and  C_13
REMARK    9  A    between atoms: C_13  and  N_15
REMARK   10  A    between atoms: N_15  and  C_16
REMARK   11  A    between atoms: C_16  and  C_17
REMARK                            x       y       z     vdW  Elec       q    Type
REMARK                         _______ _______ _______ _____ _____    ______ ____
ROOT
ATOM      1  C   UNL     1      -0.486   4.614   6.647  0.00  0.00    +0.000 C 
ATOM      2  O   UNL     1      -1.242   4.891   7.554  0.00  0.00    +0.000 OA
ATOM      3  N   UNL     1      -0.978   4.235   5.451  0.00  0.00    +0.000 N 
ATOM      4  H   UNL     1      -0.336   4.000   4.681  0.00  0.00    +0.000 HD
ENDROOT
BRANCH   3   5
ATOM      5  N   UNL     1      -2.364   4.159   5.256  0.00  0.00    +0.000 N 
ATOM      6  H   UNL     1      -3.006   4.394   6.026  0.00  0.00    +0.000 HD
BRANCH   5   7
ATOM      7  C   UNL     1      -2.856   3.780   4.060  0.00  0.00    +0.000 C 
ATOM      8  S   UNL     1      -4.548   3.687   3.821  0.00  0.00    +0.000 S 
BRANCH   7   9
ATOM      9  N   UNL     1      -2.015   3.472   3.052  0.00  0.00    +0.000 N 
ATOM     10  H   UNL     1      -0.997   3.528   3.196  0.00  0.00    +0.000 HD
BRANCH   9  11
ATOM     11  C   UNL     1      -2.550   3.059   1.752  0.00  0.00    +0.000 C 
BRANCH  11  12
ATOM     12  C   UNL     1      -1.394   2.771   0.793  0.00  0.00    +0.000 C 
ATOM     13  C   UNL     1      -1.928   2.453  -0.626  0.00  0.00    +0.000 C 
ATOM     14  C   UNL     1      -0.778   1.606  -1.224  0.00  0.00    +0.000 C 
ATOM     15  C   UNL     1      -0.013   1.086   0.008  0.00  0.00    +0.000 C 
ATOM     16  O   UNL     1      -0.705   1.559   1.176  0.00  0.00    +0.000 OA
ENDBRANCH  11  12
ENDBRANCH   9  11
ENDBRANCH   7   9
ENDBRANCH   5   7
ENDBRANCH   3   5
BRANCH   1  17
ATOM     17  C   UNL     1       1.004   4.696   6.857  0.00  0.00    +0.000 C 
BRANCH  17  20
ATOM     18  C   UNL     1       2.554   5.272   8.647  0.00  0.00    +0.000 C 
ATOM     19  O   UNL     1       3.471   5.044   7.886  0.00  0.00    +0.000 OA
ATOM     20  N   UNL     1       1.281   5.128   8.229  0.00  0.00    +0.000 N 
ATOM     21  H   UNL     1       0.502   5.323   8.875  0.00  0.00    +0.000 HD
BRANCH  18  23
ATOM     22  C   UNL     1       4.351   5.800  10.271  0.00  0.00    +0.000 C 
ATOM     23  C   UNL     1       2.839   5.718  10.058  0.00  0.00    +0.000 C 
ATOM     24  C   UNL     1       2.215   7.094  10.294  0.00  0.00    +0.000 C 
ATOM     25  C   UNL     1       2.239   4.710  11.041  0.00  0.00    +0.000 C 
ENDBRANCH  18  23
ENDBRANCH  17  20
ENDBRANCH   1  17
TORSDOF 8
ENDMDL
MODEL      717
REMARK  Name = ZINC29582093
REMARK  8 active torsions:
REMARK  status: ('A' for Active; 'I' for Inactive)
REMARK    1  A    between atoms: C_1  and  N_2
REMARK    2  A    between atoms: N_2  and  C_3
REMARK    3  A    between atoms: C_3  and  C_4
REMARK    4  A    between atoms: N_6  and  C_7
REMARK    5  A    between atoms: C_14  and  C_16
REMARK    6  A    between atoms: C_16  and  S_17
REMARK    7  A    between atoms: S_17  and  C_18
REMARK    8  A    between atoms: N_20  and  C_21
REMARK                            x       y       z     vdW  Elec       q    Type
REMARK                         _______ _______ _______ _____ _____    ______ ____
ROOT
ATOM      1  C   UNL     1       3.916   3.091   0.813  0.00  0.00    +0.000 C 
ATOM      2  N   UNL     1       3.417   2.296  -0.311  0.00  0.00    +0.000 N 
ATOM      3  C   UNL     1       3.848   2.552  -1.562  0.00  0.00    +0.000 C 
ATOM      4  O   UNL     1       3.434   1.893  -2.493  0.00  0.00    +0.000 OA
ENDROOT
BRANCH   2   5
ATOM      5  C   UNL     1       2.448   1.222  -0.076  0.00  0.00    +0.000 C 
BRANCH   5   6
ATOM      6  C   UNL     1       1.050   1.777  -0.174  0.00  0.00    +0.000 C 
ATOM      7  O   UNL     1       0.880   2.953  -0.417  0.00  0.00    +0.000 OA
ATOM      8  N   UNL     1      -0.011   0.966   0.007  0.00  0.00    +0.000 N 
ATOM      9  H   UNL     1       0.130  -0.046   0.136  0.00  0.00    +0.000 HD
BRANCH   8  10
ATOM     10  C   UNL     1      -1.306   1.499   0.022  0.00  0.00    +0.000 A 
ATOM     11  C   UNL     1      -1.528   2.770   0.536  0.00  0.00    +0.000 A 
ATOM     12  C   UNL     1      -2.805   3.296   0.545  0.00  0.00    +0.000 A 
ATOM     13  C   UNL     1      -3.865   2.553   0.052  0.00  0.00    +0.000 A 
ATOM     14  C   UNL     1      -3.646   1.284  -0.456  0.00  0.00    +0.000 A 
ATOM     15  C   UNL     1      -2.369   0.756  -0.472  0.00  0.00    +0.000 A 
ATOM     16  F   UNL     1      -5.114   3.068   0.066  0.00  0.00    +0.000 F 
ENDBRANCH   8  10
ENDBRANCH   5   6
ENDBRANCH   2   5
BRANCH   3  17
ATOM     17  C   UNL     1       4.845   3.656  -1.804  0.00  0.00    +0.000 C 
BRANCH  17  18
ATOM     18  S   UNL     1       5.223   3.750  -3.572  0.00  0.00    +0.000 S 
BRANCH  18  19
ATOM     19  C   UNL     1       6.376   5.083  -3.567  0.00  0.00    +0.000 C 
ATOM     20  N   UNL     1       6.693   5.667  -2.445  0.00  0.00    +0.000 N 
ATOM     21  N   UNL     1       6.941   5.507  -4.747  0.00  0.00    +0.000 N 
ATOM     22  H   UNL     1       6.270   5.349  -1.561  0.00  0.00    +0.000 HD
ATOM     23  H   UNL     1       7.367   6.446  -2.442  0.00  0.00    +0.000 HD
ATOM     24  H   UNL     1       6.691   5.046  -5.633  0.00  0.00    +0.000 HD
BRANCH  21  25
ATOM     25  C   UNL     1       7.900   6.615  -4.743  0.00  0.00    +0.000 C 
ATOM     26  C   UNL     1       7.753   7.680  -5.832  0.00  0.00    +0.000 C 
ATOM     27  C   UNL     1       8.910   6.679  -5.891  0.00  0.00    +0.000 C 
ENDBRANCH  21  25
ENDBRANCH  18  19
ENDBRANCH  17  18
ENDBRANCH   3  17
TORSDOF 7
ENDMDL
MODEL      718
REMARK  Name = ZINC20719014
REMARK  8 active torsions:
REMARK  status: ('A' for Active; 'I' for Inactive)
REMARK    1  A    between atoms: C_1  and  N_2
REMARK    2  A    between atoms: C_7  and  N_19
REMARK    3  A    between atoms: N_11  and  C_12
REMARK    4  A    between atoms: C_12  and  C_13
REMARK    5  A    between atoms: N_19  and  C_20
REMARK    6  A    between atoms: C_20  and  C_21
REMARK    7  A    between atoms: C_21  and  C_22
REMARK    8  A    between atoms: C_22  and  O_23
REMARK                            x       y       z     vdW  Elec       q    Type
REMARK                         _______ _______ _______ _____ _____    ______ ____
ROOT
ATOM      1  C   UNL     1       6.919  -2.504  -5.769  0.00  0.00    +0.000 C 
ATOM      2  N   UNL     1       7.411  -2.779  -4.416  0.00  0.00    +0.000 N 
ATOM      3  C   UNL     1       6.789  -2.431  -3.254  0.00  0.00    +0.000 A 
ATOM      4  C   UNL     1       7.611  -2.890  -2.206  0.00  0.00    +0.000 A 
ATOM      5  C   UNL     1       8.728  -3.516  -2.801  0.00  0.00    +0.000 A 
ATOM      6  N   UNL     1       8.600  -3.445  -4.095  0.00  0.00    +0.000 NA
ATOM      7  C   UNL     1       7.197  -2.658  -0.879  0.00  0.00    +0.000 A 
ATOM      8  N   UNL     1       6.053  -2.017  -0.676  0.00  0.00    +0.000 NA
ATOM      9  C   UNL     1       5.308  -1.601  -1.694  0.00  0.00    +0.000 A 
ATOM     10  N   UNL     1       5.654  -1.801  -2.954  0.00  0.00    +0.000 NA
ATOM     11  N   UNL     1       4.124  -0.938  -1.425  0.00  0.00    +0.000 N 
ATOM     12  H   UNL     1       3.532  -0.607  -2.201  0.00  0.00    +0.000 HD
ENDROOT
BRANCH   7  13
ATOM     13  N   UNL     1       7.965  -3.087   0.185  0.00  0.00    +0.000 N 
ATOM     14  H   UNL     1       8.852  -3.583   0.013  0.00  0.00    +0.000 HD
BRANCH  13  15
ATOM     15  C   UNL     1       7.520  -2.836   1.558  0.00  0.00    +0.000 C 
BRANCH  15  16
ATOM     16  C   UNL     1       8.545  -3.409   2.539  0.00  0.00    +0.000 C 
BRANCH  16  17
ATOM     17  C   UNL     1       8.080  -3.147   3.973  0.00  0.00    +0.000 C 
BRANCH  17  18
ATOM     18  O   UNL     1       9.037  -3.682   4.889  0.00  0.00    +0.000 OA
ATOM     19  H   UNL     1       9.914  -3.247   4.743  0.00  0.00    +0.000 HD
ENDBRANCH  17  18
ENDBRANCH  16  17
ENDBRANCH  15  16
ENDBRANCH  13  15
ENDBRANCH   7  13
BRANCH  11  20
ATOM     20  C   UNL     1       3.711  -0.707  -0.039  0.00  0.00    +0.000 C 
BRANCH  20  21
ATOM     21  C   UNL     1       2.396   0.029  -0.022  0.00  0.00    +0.000 A 
ATOM     22  C   UNL     1       1.208  -0.679  -0.014  0.00  0.00    +0.000 A 
ATOM     23  C   UNL     1       0.002  -0.004   0.002  0.00  0.00    +0.000 A 
ATOM     24  C   UNL     1      -0.017   1.378   0.010  0.00  0.00    +0.000 A 
ATOM     25  C   UNL     1       1.171   2.086   0.002  0.00  0.00    +0.000 A 
ATOM     26  C   UNL     1       2.377   1.411  -0.014  0.00  0.00    +0.000 A 
ENDBRANCH  20  21
ENDBRANCH  11  20
TORSDOF 7
ENDMDL
MODEL      719
REMARK  Name = ZINC24892087
REMARK  9 active torsions:
REMARK  status: ('A' for Active; 'I' for Inactive)
REMARK    1  A    between atoms: C_1  and  C_2
REMARK    2  A    between atoms: N_4  and  C_5
REMARK    3  A    between atoms: C_5  and  C_6
REMARK    4  A    between atoms: C_6  and  C_7
REMARK    5  A    between atoms: C_7  and  C_8
REMARK    6  A    between atoms: C_8  and  C_9
REMARK    7  A    between atoms: C_9  and  C_10
REMARK    8  A    between atoms: N_12  and  C_13
REMARK    9  A    between atoms: C_17  and  C_19
REMARK                            x       y       z     vdW  Elec       q    Type
REMARK                         _______ _______ _______ _____ _____    ______ ____
ROOT
ATOM      1  C   UNL     1      -0.027   1.205   0.176  0.00  0.00    +0.000 C 
ATOM      2  O   UNL     1      -0.029   0.002   0.325  0.00  0.00    +0.000 OA
ATOM      3  N   UNL     1      -1.191   1.867   0.018  0.00  0.00    +0.000 N 
ATOM      4  H   UNL     1      -1.196   2.896  -0.027  0.00  0.00    +0.000 HD
ENDROOT
BRANCH   3   5
ATOM      5  C   UNL     1      -2.391   1.155  -0.086  0.00  0.00    +0.000 A 
ATOM      6  C   UNL     1      -2.410  -0.089  -0.705  0.00  0.00    +0.000 A 
ATOM      7  C   UNL     1      -3.593  -0.798  -0.805  0.00  0.00    +0.000 A 
ATOM      8  C   UNL     1      -4.764  -0.269  -0.301  0.00  0.00    +0.000 A 
ATOM      9  C   UNL     1      -4.756   0.982   0.317  0.00  0.00    +0.000 A 
ATOM     10  C   UNL     1      -3.562   1.694   0.423  0.00  0.00    +0.000 A 
BRANCH   9  11
ATOM     11  C   UNL     1      -6.011   1.550   0.857  0.00  0.00    +0.000 A 
ATOM     12  C   UNL     1      -7.246   0.969   0.818  0.00  0.00    +0.000 A 
ATOM     13  C   UNL     1      -8.146   1.835   1.439  0.00  0.00    +0.000 A 
ATOM     14  N   UNL     1      -7.497   2.901   1.832  0.00  0.00    +0.000 NA
ATOM     15  N   UNL     1      -6.149   2.754   1.481  0.00  0.00    +0.000 N 
ATOM     16  H   UNL     1      -5.396   3.434   1.662  0.00  0.00    +0.000 HD
ENDBRANCH   9  11
ENDBRANCH   3   5
BRANCH   1  17
ATOM     17  C   UNL     1       1.277   1.961   0.163  0.00  0.00    +0.000 C 
BRANCH  17  18
ATOM     18  C   UNL     1       2.436   0.981   0.354  0.00  0.00    +0.000 C 
BRANCH  18  19
ATOM     19  C   UNL     1       3.760   1.748   0.341  0.00  0.00    +0.000 C 
BRANCH  19  20
ATOM     20  C   UNL     1       4.919   0.768   0.532  0.00  0.00    +0.000 C 
BRANCH  20  21
ATOM     21  C   UNL     1       6.243   1.535   0.518  0.00  0.00    +0.000 C 
BRANCH  21  25
ATOM     22  C   UNL     1       9.764   0.085   0.912  0.00  0.00    +0.000 C 
ATOM     23  C   UNL     1       8.622   1.050   0.724  0.00  0.00    +0.000 C 
ATOM     24  O   UNL     1       8.845   2.235   0.591  0.00  0.00    +0.000 OA
ATOM     25  N   UNL     1       7.353   0.597   0.702  0.00  0.00    +0.000 N 
ATOM     26  H   UNL     1       7.164  -0.409   0.815  0.00  0.00    +0.000 HD
ENDBRANCH  21  25
ENDBRANCH  20  21
ENDBRANCH  19  20
ENDBRANCH  18  19
ENDBRANCH  17  18
ENDBRANCH   1  17
TORSDOF 8
ENDMDL
MODEL      720
REMARK  Name = ZINC20188701
REMARK  9 active torsions:
REMARK  status: ('A' for Active; 'I' for Inactive)
REMARK    1  A    between atoms: C_1  and  C_2
REMARK    2  A    between atoms: C_2  and  C_3
REMARK    3  A    between atoms: C_2  and  N_4
REMARK    4  A    between atoms: N_4  and  C_5
REMARK    5  A    between atoms: C_5  and  C_6
REMARK    6  A    between atoms: C_9  and  S_12
REMARK    7  A    between atoms: S_12  and  N_15
REMARK    8  A    between atoms: N_15  and  C_16
REMARK    9  A    between atoms: C_16  and  C_17
REMARK                            x       y       z     vdW  Elec       q    Type
REMARK                         _______ _______ _______ _____ _____    ______ ____
ROOT
ATOM      1  C   UNL     1       3.958   1.854   3.643  0.00  0.00    +0.000 A 
ATOM      2  C   UNL     1       2.949   2.709   4.045  0.00  0.00    +0.000 A 
ATOM      3  C   UNL     1       1.631   2.410   3.752  0.00  0.00    +0.000 A 
ATOM      4  C   UNL     1       1.323   1.256   3.056  0.00  0.00    +0.000 A 
ATOM      5  C   UNL     1       2.331   0.398   2.658  0.00  0.00    +0.000 A 
ATOM      6  C   UNL     1       3.649   0.700   2.948  0.00  0.00    +0.000 A 
ENDROOT
BRANCH   4   7
ATOM      7  S   UNL     1      -0.356   0.875   2.682  0.00  0.00    +0.000 S 
ATOM      8  O   UNL     1      -1.151   1.557   3.643  0.00  0.00    +0.000 OA
ATOM      9  O   UNL     1      -0.422  -0.533   2.500  0.00  0.00    +0.000 OA
BRANCH   7  10
ATOM     10  N   UNL     1      -0.698   1.558   1.213  0.00  0.00    +0.000 NA
ATOM     11  H   UNL     1      -1.393   2.316   1.147  0.00  0.00    +0.000 HD
BRANCH  10  12
ATOM     12  C   UNL     1      -0.013   1.086   0.008  0.00  0.00    +0.000 C 
BRANCH  12  13
ATOM     13  C   UNL     1      -0.742   1.585  -1.213  0.00  0.00    +0.000 A 
ATOM     14  C   UNL     1      -1.754   0.829  -1.784  0.00  0.00    +0.000 A 
ATOM     15  C   UNL     1      -2.400   1.330  -2.904  0.00  0.00    +0.000 A 
ATOM     16  C   UNL     1      -2.010   2.553  -3.416  0.00  0.00    +0.000 A 
ATOM     17  N   UNL     1      -1.039   3.242  -2.849  0.00  0.00    +0.000 NA
ATOM     18  C   UNL     1      -0.405   2.799  -1.781  0.00  0.00    +0.000 A 
ENDBRANCH  12  13
ENDBRANCH  10  12
ENDBRANCH   7  10
ENDBRANCH   4   7
BRANCH   1  19
ATOM     19  C   UNL     1       5.394   2.181   3.961  0.00  0.00    +0.000 C 
BRANCH  19  20
ATOM     20  N   UNL     1       5.752   1.597   5.261  0.00  0.00    +0.000 N 
ATOM     21  H   UNL     1       5.623   0.576   5.221  0.00  0.00    +0.000 HD
ATOM     22  H   UNL     1       5.132   1.982   5.988  0.00  0.00    +0.000 HD
BRANCH  20  24
ATOM     23  C   UNL     1       7.226   3.269   6.275  0.00  0.00    +0.000 C 
ATOM     24  C   UNL     1       7.149   1.896   5.605  0.00  0.00    +0.000 C 
ATOM     25  C   UNL     1       7.676   0.829   6.566  0.00  0.00    +0.000 C 
ENDBRANCH  20  24
ENDBRANCH  19  20
ENDBRANCH   1  19
TORSDOF 7
ENDMDL
MODEL      721
REMARK  Name = ZINC03766761
REMARK  6 active torsions:
REMARK  status: ('A' for Active; 'I' for Inactive)
REMARK    1  A    between atoms: C_1  and  O_2
REMARK    2  A    between atoms: O_2  and  C_3
REMARK    3  A    between atoms: C_7  and  N_9
REMARK    4  A    between atoms: C_10  and  C_12
REMARK    5  A    between atoms: C_16  and  C_22
REMARK    6  A    between atoms: C_17  and  N_21
REMARK                            x       y       z     vdW  Elec       q    Type
REMARK                         _______ _______ _______ _____ _____    ______ ____
ROOT
ATOM      1  C   UNL     1      -5.823  -1.019   0.102  0.00  0.00    +0.000 A 
ATOM      2  C   UNL     1      -4.569  -0.506   0.445  0.00  0.00    +0.000 A 
ATOM      3  N   UNL     1      -3.397  -1.092   0.739  0.00  0.00    +0.000 NA
ATOM      4  N   UNL     1      -2.354  -0.398   1.031  0.00  0.00    +0.000 NA
ATOM      5  C   UNL     1      -2.399   0.941   1.051  0.00  0.00    +0.000 A 
ATOM      6  C   UNL     1      -3.601   1.596   0.756  0.00  0.00    +0.000 A 
ATOM      7  N   UNL     1      -4.685   0.849   0.447  0.00  0.00    +0.000 N 
ATOM      8  C   UNL     1      -5.926   1.176   0.128  0.00  0.00    +0.000 A 
ATOM      9  N   UNL     1      -6.646   0.072  -0.089  0.00  0.00    +0.000 NA
ENDROOT
BRANCH   5  10
ATOM     10  C   UNL     1      -1.195   1.717   1.387  0.00  0.00    +0.000 C 
ATOM     11  O   UNL     1      -1.211   2.930   1.302  0.00  0.00    +0.000 OA
ATOM     12  N   UNL     1      -0.075   1.083   1.788  0.00  0.00    +0.000 N 
ATOM     13  H   UNL     1      -0.062   0.056   1.860  0.00  0.00    +0.000 HD
ATOM     14  H   UNL     1       0.767   1.627   2.023  0.00  0.00    +0.000 HD
ENDBRANCH   5  10
BRANCH   1  16
ATOM     15  N   UNL     1      -7.436  -2.726  -0.365  0.00  0.00    +0.000 N 
ATOM     16  C   UNL     1      -6.177  -2.385  -0.025  0.00  0.00    +0.000 C 
ATOM     17  O   UNL     1      -5.344  -3.251   0.172  0.00  0.00    +0.000 OA
ATOM     18  H   UNL     1      -8.121  -1.994  -0.603  0.00  0.00    +0.000 HD
BRANCH  15  23
ATOM     19  C   UNL     1      -7.287  -6.370  -0.853  0.00  0.00    +0.000 A 
ATOM     20  C   UNL     1      -8.564  -6.738  -0.450  0.00  0.00    +0.000 A 
ATOM     21  C   UNL     1      -9.459  -5.777  -0.021  0.00  0.00    +0.000 A 
ATOM     22  C   UNL     1      -9.088  -4.447   0.008  0.00  0.00    +0.000 A 
ATOM     23  C   UNL     1      -7.812  -4.072  -0.394  0.00  0.00    +0.000 A 
ATOM     24  C   UNL     1      -6.912  -5.036  -0.830  0.00  0.00    +0.000 A 
BRANCH  19  26
ATOM     25  C   UNL     1      -6.864  -8.670  -1.278  0.00  0.00    +0.000 C 
ATOM     26  O   UNL     1      -6.408  -7.316  -1.275  0.00  0.00    +0.000 OA
ENDBRANCH  19  26
ENDBRANCH  15  23
ENDBRANCH   1  16
BRANCH   6  27
ATOM     27  N   UNL     1      -3.676   2.966   0.776  0.00  0.00    +0.000 N 
ATOM     28  H   UNL     1      -2.837   3.516   1.010  0.00  0.00    +0.000 HD
ATOM     29  H   UNL     1      -4.563   3.442   0.558  0.00  0.00    +0.000 HD
ENDBRANCH   6  27
TORSDOF 5
ENDMDL
MODEL      722
REMARK  Name = ZINC31969967
REMARK  10 active torsions:
REMARK  status: ('A' for Active; 'I' for Inactive)
REMARK    1  A    between atoms: N_2  and  C_21
REMARK    2  A    between atoms: N_5  and  C1*_6
REMARK    3  A    between atoms: C2*_7  and  O2*_14
REMARK    4  A    between atoms: C3*_8  and  O3*_13
REMARK    5  A    between atoms: C4*_9  and  C5*_11
REMARK    6  A    between atoms: C5*_11  and  O5*_12
REMARK    7  A    between atoms: C_16  and  N_20
REMARK    8  A    between atoms: C_18  and  O_19
REMARK    9  A    between atoms: C_21  and  C_22
REMARK   10  A    between atoms: C_22  and  O_23
REMARK                            x       y       z     vdW  Elec       q    Type
REMARK                         _______ _______ _______ _____ _____    ______ ____
ROOT
ATOM      1  C   UNL     1      -2.276   2.205  -2.412  0.00  0.00    +0.000 A 
ATOM      2  N   UNL     1      -1.116   2.272  -3.104  0.00  0.00    +0.000 N 
ATOM      3  C   UNL     1      -0.131   1.834  -2.264  0.00  0.00    +0.000 A 
ATOM      4  C   UNL     1      -0.749   1.509  -1.056  0.00  0.00    +0.000 A 
ATOM      5  N   UNL     1      -2.044   1.752  -1.202  0.00  0.00    +0.000 N 
ATOM      6  N   UNL     1      -0.008   1.028   0.016  0.00  0.00    +0.000 NA
ATOM      7  C   UNL     1       1.350   1.582   0.004  0.00  0.00    +0.000 C 
ATOM      8  N   UNL     1       1.993   1.521  -1.302  0.00  0.00    +0.000 NA
ATOM      9  C   UNL     1       1.316   1.673  -2.422  0.00  0.00    +0.000 C 
ENDROOT
BRANCH   5  10
ATOM     10  C1* UNL     1      -3.062   1.546  -0.170  0.00  0.00    +0.000 C 
ATOM     11  C2* UNL     1      -3.050   2.717   0.838  0.00  0.00    +0.000 C 
ATOM     12  C3* UNL     1      -4.139   3.678   0.311  0.00  0.00    +0.000 C 
ATOM     13  C4* UNL     1      -4.680   2.974  -0.954  0.00  0.00    +0.000 C 
ATOM     14  O4* UNL     1      -4.383   1.575  -0.753  0.00  0.00    +0.000 OA
BRANCH  12  15
ATOM     15  O3* UNL     1      -5.177   3.840   1.280  0.00  0.00    +0.000 OA
ATOM     16  H3* UNL     1      -4.787   4.207   2.112  0.00  0.00    +0.000 HD
ENDBRANCH  12  15
BRANCH  11  17
ATOM     17  O2* UNL     1      -1.774   3.360   0.844  0.00  0.00    +0.000 OA
ATOM     18  H2* UNL     1      -1.582   3.704  -0.065  0.00  0.00    +0.000 HD
ENDBRANCH  11  17
BRANCH  13  19
ATOM     19  C5* UNL     1      -6.190   3.186  -1.076  0.00  0.00    +0.000 C 
BRANCH  19  20
ATOM     20  O5* UNL     1      -6.651   2.629  -2.309  0.00  0.00    +0.000 OA
ATOM     21  H5* UNL     1      -6.452   1.659  -2.328  0.00  0.00    +0.000 HD
ENDBRANCH  19  20
ENDBRANCH  13  19
ENDBRANCH   5  10
BRANCH   7  22
ATOM     22  N   UNL     1       2.170   0.836   0.967  0.00  0.00    +0.000 NA
ATOM     23  H   UNL     1       2.204  -0.159   0.702  0.00  0.00    +0.000 HD
ATOM     24  H   UNL     1       1.771   0.928   1.912  0.00  0.00    +0.000 HD
ENDBRANCH   7  22
BRANCH   9  25
ATOM     25  O   UNL     1       1.916   1.679  -3.635  0.00  0.00    +0.000 OA
ATOM     26  H   UNL     1       1.629   2.538  -4.035  0.00  0.00    +0.000 HD
ENDBRANCH   9  25
BRANCH   2  27
ATOM     27  C   UNL     1      -0.947   2.726  -4.487  0.00  0.00    +0.000 C 
BRANCH  27  28
ATOM     28  C   UNL     1      -0.965   1.518  -5.426  0.00  0.00    +0.000 C 
BRANCH  28  29
ATOM     29  O   UNL     1      -0.801   1.961  -6.774  0.00  0.00    +0.000 OA
ATOM     30  H   UNL     1       0.063   2.435  -6.864  0.00  0.00    +0.000 HD
ENDBRANCH  28  29
ENDBRANCH  27  28
ENDBRANCH   2  27
TORSDOF 10
ENDMDL
MODEL      723
REMARK  Name = ZINC16997707
REMARK  8 active torsions:
REMARK  status: ('A' for Active; 'I' for Inactive)
REMARK    1  A    between atoms: CB_1  and  CA_2
REMARK    2  A    between atoms: CA_2  and  C_3
REMARK    3  A    between atoms: CA_2  and  N_6
REMARK    4  A    between atoms: N_12  and  C1*_13
REMARK    5  A    between atoms: C2*_14  and  O2*_21
REMARK    6  A    between atoms: C3*_15  and  O3*_20
REMARK    7  A    between atoms: C4*_16  and  C5*_18
REMARK    8  A    between atoms: C5*_18  and  O5*_19
REMARK                            x       y       z     vdW  Elec       q    Type
REMARK                         _______ _______ _______ _____ _____    ______ ____
ROOT
ATOM      1  N   UNL     1       1.469   1.575  -0.737  0.00  0.00    +0.000 NA
ATOM      2  C   UNL     1       2.428   0.743  -0.392  0.00  0.00    +0.000 A 
ATOM      3  N   UNL     1       2.197  -0.578  -0.401  0.00  0.00    +0.000 N 
ATOM      4  C   UNL     1       3.147  -1.431  -0.058  0.00  0.00    +0.000 A 
ATOM      5  C   UNL     1       4.421  -0.956   0.321  0.00  0.00    +0.000 A 
ATOM      6  C   UNL     1       4.658   0.374   0.330  0.00  0.00    +0.000 A 
ATOM      7  N   UNL     1       3.661   1.234  -0.032  0.00  0.00    +0.000 N 
ATOM      8  N   UNL     1       2.894  -2.785  -0.072  0.00  0.00    +0.000 N 
ATOM      9  H   UNL     1       1.269  -0.931  -0.677  0.00  0.00    +0.000 HD
ATOM     10  H   UNL     1       1.965  -3.132  -0.349  0.00  0.00    +0.000 HD
ATOM     11  H   UNL     1       3.634  -3.450   0.194  0.00  0.00    +0.000 HD
ENDROOT
BRANCH   7  12
ATOM     12  C1* UNL     1       3.903   2.679  -0.032  0.00  0.00    +0.000 C 
ATOM     13  C2* UNL     1       4.659   3.084   1.248  0.00  0.00    +0.000 C 
ATOM     14  C3* UNL     1       6.005   3.648   0.733  0.00  0.00    +0.000 C 
ATOM     15  C4* UNL     1       6.100   3.019  -0.681  0.00  0.00    +0.000 C 
ATOM     16  O4* UNL     1       4.734   3.035  -1.149  0.00  0.00    +0.000 OA
BRANCH  13  17
ATOM     17  O2* UNL     1       4.880   1.944   2.080  0.00  0.00    +0.000 OA
ATOM     18  H2* UNL     1       5.413   1.276   1.579  0.00  0.00    +0.000 HD
ENDBRANCH  13  17
BRANCH  14  19
ATOM     19  O3* UNL     1       5.964   5.074   0.654  0.00  0.00    +0.000 OA
ATOM     20  H3* UNL     1       5.776   5.439   1.555  0.00  0.00    +0.000 HD
ENDBRANCH  14  19
BRANCH  15  21
ATOM     21  C5* UNL     1       6.992   3.865  -1.592  0.00  0.00    +0.000 C 
BRANCH  21  22
ATOM     22  O5* UNL     1       7.072   3.254  -2.881  0.00  0.00    +0.000 OA
ATOM     23  H5* UNL     1       6.165   3.191  -3.274  0.00  0.00    +0.000 HD
ENDBRANCH  21  22
ENDBRANCH  15  21
ENDBRANCH   7  12
BRANCH   1  25
ATOM     24  CB  UNL     1      -0.159   1.493  -2.560  0.00  0.00    +0.000 C 
ATOM     25  CA  UNL     1       0.155   1.058  -1.127  0.00  0.00    +0.000 C 
BRANCH  25  26
ATOM     26  C   UNL     1      -0.896   1.601  -0.195  0.00  0.00    +0.000 C 
ATOM     27  O   UNL     1      -0.581   2.345   0.704  0.00  0.00    +0.000 OA
ATOM     28  OXT UNL     1      -2.183   1.260  -0.363  0.00  0.00    +0.000 OA
ENDBRANCH  25  26
ENDBRANCH   1  25
TORSDOF 7
ENDMDL
MODEL      724
REMARK  Name = ZINC05484012
REMARK  5 active torsions:
REMARK  status: ('A' for Active; 'I' for Inactive)
REMARK    1  A    between atoms: C_1  and  N_22
REMARK    2  A    between atoms: C_2  and  C_3
REMARK    3  A    between atoms: C_2  and  N_22
REMARK    4  A    between atoms: C_4  and  C_14
REMARK    5  A    between atoms: C_16  and  N_22
REMARK                            x       y       z     vdW  Elec       q    Type
REMARK                         _______ _______ _______ _____ _____    ______ ____
ROOT
ATOM      1  C   UNL     1       3.121  -2.200  -0.045  0.00  0.00    +0.000 A 
ATOM      2  C   UNL     1       3.084  -3.566  -0.047  0.00  0.00    +0.000 A 
ATOM      3  N   UNL     1       1.797  -3.957  -0.038  0.00  0.00    +0.000 NA
ATOM      4  N   UNL     1       1.032  -2.922  -0.025  0.00  0.00    +0.000 NA
ATOM      5  N   UNL     1       1.838  -1.775  -0.025  0.00  0.00    +0.000 N 
ATOM      6  C   UNL     1       1.399  -0.446  -0.014  0.00  0.00    +0.000 A 
ATOM      7  C   UNL     1       0.002  -0.004   0.002  0.00  0.00    +0.000 A 
ATOM      8  N   UNL     1      -0.016   1.300   0.009  0.00  0.00    +0.000 NA
ATOM      9  O   UNL     1       1.327   1.753  -0.001  0.00  0.00    +0.000 OA
ATOM     10  N   UNL     1       2.164   0.609  -0.015  0.00  0.00    +0.000 NA
ATOM     11  N   UNL     1      -1.114  -0.833   0.009  0.00  0.00    +0.000 N 
ATOM     12  H   UNL     1      -0.918  -1.845   0.002  0.00  0.00    +0.000 HD
ATOM     13  H   UNL     1      -2.080  -0.477   0.020  0.00  0.00    +0.000 HD
ENDROOT
BRANCH   2  14
ATOM     14  C   UNL     1       4.256  -4.459  -0.063  0.00  0.00    +0.000 C 
ATOM     15  O   UNL     1       5.377  -3.991  -0.071  0.00  0.00    +0.000 OA
ATOM     16  O   UNL     1       4.084  -5.796  -0.069  0.00  0.00    +0.000 OA
ENDBRANCH   2  14
BRANCH   1  17
ATOM     17  C   UNL     1       4.354  -1.334  -0.059  0.00  0.00    +0.000 C 
BRANCH  17  19
ATOM     18  C   UNL     1       5.218  -2.288   1.992  0.00  0.00    +0.000 C 
ATOM     19  N   UNL     1       4.752  -1.048   1.335  0.00  0.00    +0.000 N 
ATOM     20  H   UNL     1       3.936  -0.685   1.848  0.00  0.00    +0.000 HD
BRANCH  19  21
ATOM     21  C   UNL     1       5.824  -0.031   1.357  0.00  0.00    +0.000 C 
ATOM     22  C   UNL     1       7.083  -0.564   0.668  0.00  0.00    +0.000 C 
ATOM     23  C   UNL     1       8.176   0.505   0.705  0.00  0.00    +0.000 C 
ATOM     24  C   UNL     1       8.499   0.855   2.160  0.00  0.00    +0.000 C 
ATOM     25  C   UNL     1       7.240   1.387   2.848  0.00  0.00    +0.000 C 
ATOM     26  C   UNL     1       6.147   0.318   2.811  0.00  0.00    +0.000 C 
ENDBRANCH  19  21
ENDBRANCH  17  19
ENDBRANCH   1  17
TORSDOF 4
ENDMDL
MODEL      725
REMARK  Name = ZINC28195645
REMARK  6 active torsions:
REMARK  status: ('A' for Active; 'I' for Inactive)
REMARK    1  A    between atoms: C_1  and  N_2
REMARK    2  A    between atoms: C_4  and  S_10
REMARK    3  A    between atoms: C_6  and  C_7
REMARK    4  A    between atoms: S_10  and  N_13
REMARK    5  A    between atoms: N_13  and  N_14
REMARK    6  A    between atoms: C_15  and  C_17
REMARK                            x       y       z     vdW  Elec       q    Type
REMARK                         _______ _______ _______ _____ _____    ______ ____
ROOT
ATOM      1  S   UNL     1       3.842   0.762  -0.054  0.00  0.00    +0.000 S 
ATOM      2  O   UNL     1       4.225   2.019   0.487  0.00  0.00    +0.000 OA
ATOM      3  O   UNL     1       4.290  -0.471   0.492  0.00  0.00    +0.000 OA
ENDROOT
BRANCH   1   7
ATOM      4  C   UNL     1      -1.219   2.209   0.018  0.00  0.00    +0.000 C 
ATOM      5  N   UNL     1      -0.028   1.356   0.006  0.00  0.00    +0.000 N 
ATOM      6  C   UNL     1       1.256   1.790  -0.015  0.00  0.00    +0.000 A 
ATOM      7  C   UNL     1       2.081   0.716  -0.026  0.00  0.00    +0.000 A 
ATOM      8  C   UNL     1       1.288  -0.435  -0.010  0.00  0.00    +0.000 A 
ATOM      9  C   UNL     1      -0.027  -0.021   0.010  0.00  0.00    +0.000 A 
BRANCH   9  10
ATOM     10  C   UNL     1      -1.209  -0.889   0.032  0.00  0.00    +0.000 C 
ATOM     11  O   UNL     1      -2.322  -0.403  -0.044  0.00  0.00    +0.000 OA
ATOM     12  N   UNL     1      -1.063  -2.225   0.135  0.00  0.00    +0.000 N 
ATOM     13  H   UNL     1      -0.121  -2.636   0.198  0.00  0.00    +0.000 HD
ATOM     14  H   UNL     1      -1.893  -2.834   0.150  0.00  0.00    +0.000 HD
ENDBRANCH   9  10
ENDBRANCH   1   7
BRANCH   1  15
ATOM     15  N   UNL     1       4.306   0.771  -1.644  0.00  0.00    +0.000 NA
BRANCH  15  16
ATOM     16  N   UNL     1       3.893   1.810  -2.488  0.00  0.00    +0.000 N 
ATOM     17  C   UNL     1       4.807   2.527  -3.173  0.00  0.00    +0.000 C 
ATOM     18  O   UNL     1       5.989   2.272  -3.057  0.00  0.00    +0.000 OA
ATOM     19  H   UNL     1       2.890   2.026  -2.586  0.00  0.00    +0.000 HD
BRANCH  17  20
ATOM     20  C   UNL     1       4.369   3.625  -4.066  0.00  0.00    +0.000 A 
ATOM     21  C   UNL     1       5.319   4.362  -4.770  0.00  0.00    +0.000 A 
ATOM     22  C   UNL     1       4.895   5.386  -5.602  0.00  0.00    +0.000 A 
ATOM     23  C   UNL     1       3.535   5.638  -5.700  0.00  0.00    +0.000 A 
ATOM     24  C   UNL     1       2.647   4.865  -4.970  0.00  0.00    +0.000 A 
ATOM     25  N   UNL     1       3.076   3.895  -4.192  0.00  0.00    +0.000 NA
ENDBRANCH  17  20
ENDBRANCH  15  16
ENDBRANCH   1  15
TORSDOF 5
ENDMDL
MODEL      726
REMARK  Name = ZINC06208229
REMARK  5 active torsions:
REMARK  status: ('A' for Active; 'I' for Inactive)
REMARK    1  A    between atoms: C_1  and  C_2
REMARK    2  A    between atoms: C_7  and  N_8
REMARK    3  A    between atoms: C_11  and  C_17
REMARK    4  A    between atoms: C_17  and  N_19
REMARK    5  A    between atoms: N_19  and  N_20
REMARK                            x       y       z     vdW  Elec       q    Type
REMARK                         _______ _______ _______ _____ _____    ______ ____
ROOT
ATOM      1  N   UNL     1       0.030   4.024   0.022  0.00  0.00    +0.000 N 
ATOM      2  C   UNL     1      -1.210   3.490   0.032  0.00  0.00    +0.000 A 
ATOM      3  O   UNL     1      -2.197   4.193   0.045  0.00  0.00    +0.000 OA
ATOM      4  C   UNL     1      -1.322   1.977   0.019  0.00  0.00    +0.000 A 
ATOM      5  C   UNL     1      -0.014   1.208   0.009  0.00  0.00    +0.000 A 
ATOM      6  O   UNL     1       0.002  -0.004   0.002  0.00  0.00    +0.000 OA
ATOM      7  N   UNL     1       1.130   1.924   0.002  0.00  0.00    +0.000 N 
ATOM      8  C   UNL     1       1.129   3.262   0.008  0.00  0.00    +0.000 A 
ATOM      9  O   UNL     1       2.205   3.826   0.002  0.00  0.00    +0.000 OA
ATOM     10  H   UNL     1       2.031   1.425  -0.009  0.00  0.00    +0.000 HD
ENDROOT
BRANCH   1  17
ATOM     11  C   UNL     1       0.188   5.351   2.535  0.00  0.00    +0.000 C 
ATOM     12  C   UNL     1       0.250   6.105   1.232  0.00  0.00    +0.000 A 
ATOM     13  C   UNL     1       0.387   7.479   1.235  0.00  0.00    +0.000 A 
ATOM     14  C   UNL     1       0.445   8.172   0.040  0.00  0.00    +0.000 A 
ATOM     15  C   UNL     1       0.365   7.491  -1.162  0.00  0.00    +0.000 A 
ATOM     16  C   UNL     1       0.233   6.117  -1.171  0.00  0.00    +0.000 A 
ATOM     17  C   UNL     1       0.169   5.419   0.028  0.00  0.00    +0.000 A 
ENDBRANCH   1  17
BRANCH   4  18
ATOM     18  C   UNL     1      -2.114   1.571  -1.197  0.00  0.00    +0.000 C 
ATOM     19  C   UNL     1      -3.308   1.019  -1.055  0.00  0.00    +0.000 C 
BRANCH  18  20
ATOM     20  N   UNL     1      -1.593   1.776  -2.463  0.00  0.00    +0.000 N 
ATOM     21  H   UNL     1      -0.663   2.206  -2.574  0.00  0.00    +0.000 HD
BRANCH  20  22
ATOM     22  N   UNL     1      -2.329   1.399  -3.594  0.00  0.00    +0.000 N 
ATOM     23  C   UNL     1      -1.839   1.591  -4.783  0.00  0.00    +0.000 C 
ATOM     24  N   UNL     1      -0.588   2.170  -4.932  0.00  0.00    +0.000 N 
ATOM     25  N   UNL     1      -2.568   1.218  -5.901  0.00  0.00    +0.000 N 
ATOM     26  H   UNL     1      -3.259   0.969  -3.483  0.00  0.00    +0.000 HD
ATOM     27  H   UNL     1      -0.047   2.447  -4.101  0.00  0.00    +0.000 HD
ATOM     28  H   UNL     1      -0.200   2.322  -5.874  0.00  0.00    +0.000 HD
ATOM     29  H   UNL     1      -3.497   0.788  -5.791  0.00  0.00    +0.000 HD
ATOM     30  H   UNL     1      -2.179   1.370  -6.843  0.00  0.00    +0.000 HD
ENDBRANCH  20  22
ENDBRANCH  18  20
ENDBRANCH   4  18
TORSDOF 4
ENDMDL
MODEL      727
REMARK  Name = ZINC01879803
REMARK  7 active torsions:
REMARK  status: ('A' for Active; 'I' for Inactive)
REMARK    1  A    between atoms: C_1  and  C_2
REMARK    2  A    between atoms: C_2  and  N_12
REMARK    3  A    between atoms: C_3  and  N_4
REMARK    4  A    between atoms: N_12  and  N_13
REMARK    5  A    between atoms: C_14  and  C_16
REMARK    6  A    between atoms: C_19  and  O_23
REMARK    7  A    between atoms: C_21  and  O_22
REMARK                            x       y       z     vdW  Elec       q    Type
REMARK                         _______ _______ _______ _____ _____    ______ ____
ROOT
ATOM      1  N   UNL     1       0.157   0.906  -0.020  0.00  0.00    +0.000 N 
ATOM      2  C   UNL     1      -1.034   1.537  -0.003  0.00  0.00    +0.000 C 
ATOM      3  O   UNL     1      -1.081   2.750  -0.077  0.00  0.00    +0.000 OA
ATOM      4  H   UNL     1       0.195  -0.123  -0.032  0.00  0.00    +0.000 HD
ENDROOT
BRANCH   2   5
ATOM      5  C   UNL     1      -2.279   0.758   0.107  0.00  0.00    +0.000 A 
ATOM      6  C   UNL     1      -2.226  -0.626   0.304  0.00  0.00    +0.000 A 
ATOM      7  C   UNL     1      -3.390  -1.350   0.406  0.00  0.00    +0.000 A 
ATOM      8  C   UNL     1      -4.624  -0.712   0.314  0.00  0.00    +0.000 A 
ATOM      9  C   UNL     1      -4.688   0.660   0.119  0.00  0.00    +0.000 A 
ATOM     10  C   UNL     1      -3.523   1.401   0.020  0.00  0.00    +0.000 A 
BRANCH  10  11
ATOM     11  O   UNL     1      -3.583   2.743  -0.166  0.00  0.00    +0.000 OA
ATOM     12  H   UNL     1      -3.065   2.909  -0.993  0.00  0.00    +0.000 HD
ENDBRANCH  10  11
BRANCH   8  13
ATOM     13  O   UNL     1      -5.768  -1.434   0.416  0.00  0.00    +0.000 OA
ATOM     14  H   UNL     1      -5.699  -1.900   1.287  0.00  0.00    +0.000 HD
ENDBRANCH   8  13
ENDBRANCH   2   5
BRANCH   1  15
ATOM     15  N   UNL     1       1.344   1.651  -0.021  0.00  0.00    +0.000 N 
ATOM     16  H   UNL     1       1.308   2.678  -0.085  0.00  0.00    +0.000 HD
BRANCH  15  18
ATOM     17  C   UNL     1       2.633  -0.504   0.035  0.00  0.00    +0.000 C 
ATOM     18  C   UNL     1       2.573   1.002   0.063  0.00  0.00    +0.000 C 
ATOM     19  C   UNL     1       3.691   1.708   0.167  0.00  0.00    +0.000 C 
BRANCH  19  20
ATOM     20  N   UNL     1       3.647   3.104   0.079  0.00  0.00    +0.000 N 
ATOM     21  C   UNL     1       4.698   3.946   0.064  0.00  0.00    +0.000 A 
ATOM     22  N   UNL     1       4.238   5.168  -0.033  0.00  0.00    +0.000 NA
ATOM     23  C   UNL     1       2.907   5.148  -0.072  0.00  0.00    +0.000 A 
ATOM     24  N   UNL     1       2.497   3.907  -0.007  0.00  0.00    +0.000 NA
ATOM     25  N   UNL     1       2.031   6.338  -0.173  0.00  0.00    +0.000 N 
ATOM     26  O   UNL     1       0.822   6.211  -0.109  0.00  0.00    +0.000 OA
ATOM     27  O   UNL     1       2.521   7.443  -0.320  0.00  0.00    +0.000 OA
ENDBRANCH  19  20
ENDBRANCH  15  18
ENDBRANCH   1  15
TORSDOF 6
ENDMDL
MODEL      728
REMARK  Name = ZINC03645889
REMARK  6 active torsions:
REMARK  status: ('A' for Active; 'I' for Inactive)
REMARK    1  A    between atoms: C_5  and  O_8
REMARK    2  A    between atoms: O_8  and  C_9
REMARK    3  A    between atoms: C_9  and  C_10
REMARK    4  A    between atoms: C_10  and  N_11
REMARK    5  A    between atoms: N_12  and  C_20
REMARK    6  A    between atoms: C_14  and  C_17
REMARK                            x       y       z     vdW  Elec       q    Type
REMARK                         _______ _______ _______ _____ _____    ______ ____
ROOT
ATOM      1  C   UNL     1      -1.226   2.043   0.470  0.00  0.00    +0.000 A 
ATOM      2  C   UNL     1      -1.236   3.424   0.260  0.00  0.00    +0.000 A 
ATOM      3  C   UNL     1      -0.031   4.148   0.245  0.00  0.00    +0.000 A 
ATOM      4  C   UNL     1       1.169   3.473   0.447  0.00  0.00    +0.000 A 
ATOM      5  C   UNL     1       1.162   2.106   0.659  0.00  0.00    +0.000 A 
ATOM      6  C   UNL     1      -0.040   1.396   0.672  0.00  0.00    +0.000 A 
ATOM      7  F   UNL     1      -0.029   0.061   0.881  0.00  0.00    +0.000 F 
ATOM      8  N   UNL     1      -0.040   5.510   0.033  0.00  0.00    +0.000 N 
ATOM      9  C   UNL     1      -1.168   6.205  -0.166  0.00  0.00    +0.000 A 
ATOM     10  C   UNL     1      -2.410   5.604  -0.172  0.00  0.00    +0.000 A 
ATOM     11  C   UNL     1      -2.499   4.151   0.046  0.00  0.00    +0.000 A 
ATOM     12  O   UNL     1      -3.572   3.574   0.048  0.00  0.00    +0.000 OA
ENDROOT
BRANCH   8  13
ATOM     13  C   UNL     1       1.237   6.228   0.025  0.00  0.00    +0.000 C 
ATOM     14  C   UNL     1       1.190   7.754   0.120  0.00  0.00    +0.000 C 
ATOM     15  C   UNL     1       1.560   7.081  -1.203  0.00  0.00    +0.000 C 
ENDBRANCH   8  13
BRANCH  10  16
ATOM     16  C   UNL     1      -3.624   6.402  -0.393  0.00  0.00    +0.000 C 
ATOM     17  O   UNL     1      -4.714   5.862  -0.397  0.00  0.00    +0.000 OA
ATOM     18  O   UNL     1      -3.530   7.732  -0.591  0.00  0.00    +0.000 OA
ENDBRANCH  10  16
BRANCH   5  19
ATOM     19  O   UNL     1       2.334   1.450   0.856  0.00  0.00    +0.000 OA
BRANCH  19  20
ATOM     20  C   UNL     1       3.529   2.234   0.831  0.00  0.00    +0.000 C 
BRANCH  20  21
ATOM     21  C   UNL     1       4.738   1.328   1.069  0.00  0.00    +0.000 C 
BRANCH  21  22
ATOM     22  N   UNL     1       4.870   0.382  -0.047  0.00  0.00    +0.000 N 
ATOM     23  H   UNL     1       5.000   0.904  -0.926  0.00  0.00    +0.000 HD
ATOM     24  H   UNL     1       4.018  -0.193  -0.113  0.00  0.00    +0.000 HD
ATOM     25  H   UNL     1       5.684  -0.228   0.113  0.00  0.00    +0.000 HD
ENDBRANCH  21  22
ENDBRANCH  20  21
ENDBRANCH  19  20
ENDBRANCH   5  19
TORSDOF 6
ENDMDL
MODEL      729
REMARK  Name = ZINC32035802
REMARK  9 active torsions:
REMARK  status: ('A' for Active; 'I' for Inactive)
REMARK    1  A    between atoms: C_1  and  C_2
REMARK    2  A    between atoms: C_2  and  C_3
REMARK    3  A    between atoms: C_2  and  O_15
REMARK    4  A    between atoms: C_3  and  C_4
REMARK    5  A    between atoms: C_10  and  N_14
REMARK    6  A    between atoms: N_12  and  N_13
REMARK    7  A    between atoms: O_15  and  C_16
REMARK    8  A    between atoms: C_16  and  P_17
REMARK    9  A    between atoms: P_17  and  O_20
REMARK                            x       y       z     vdW  Elec       q    Type
REMARK                         _______ _______ _______ _____ _____    ______ ____
ROOT
ATOM      1  C   UNL     1       0.776  -2.072  -1.157  0.00  0.00    +0.000 C 
ATOM      2  C   UNL     1       1.799  -2.441  -0.059  0.00  0.00    +0.000 C 
ATOM      3  N   UNL     1       2.553  -3.616  -0.549  0.00  0.00    +0.000 N 
ATOM      4  C   UNL     1       2.010  -3.980  -1.868  0.00  0.00    +0.000 C 
ATOM      5  C   UNL     1       1.429  -2.670  -2.440  0.00  0.00    +0.000 C 
ATOM      6  C   UNL     1       2.562  -1.723  -2.842  0.00  0.00    +0.000 C 
ATOM      7  C   UNL     1       3.539  -2.433  -3.779  0.00  0.00    +0.000 C 
ATOM      8  C   UNL     1       4.112  -3.655  -3.052  0.00  0.00    +0.000 C 
ATOM      9  N   UNL     1       3.010  -4.571  -2.738  0.00  0.00    +0.000 NA
ATOM     10  H   UNL     1       2.435  -4.403   0.104  0.00  0.00    +0.000 HD
ATOM     11  H   UNL     1       3.551  -3.375  -0.639  0.00  0.00    +0.000 HD
ENDROOT
BRANCH   7  12
ATOM     12  N   UNL     1       4.630  -1.518  -4.141  0.00  0.00    +0.000 N 
ATOM     13  H   UNL     1       5.126  -1.222  -3.288  0.00  0.00    +0.000 HD
ATOM     14  H   UNL     1       4.240  -0.691  -4.615  0.00  0.00    +0.000 HD
ATOM     15  H   UNL     1       5.287  -1.998  -4.772  0.00  0.00    +0.000 HD
ENDBRANCH   7  12
BRANCH   9  16
ATOM     16  N   UNL     1       3.511  -5.818  -2.184  0.00  0.00    +0.000 NA
ATOM     17  H   UNL     1       2.724  -6.473  -2.071  0.00  0.00    +0.000 HD
ATOM     18  H   UNL     1       3.928  -5.629  -1.261  0.00  0.00    +0.000 HD
ENDBRANCH   9  16
BRANCH   1  19
ATOM     19  C   UNL     1       0.631  -0.554  -1.277  0.00  0.00    +0.000 C 
BRANCH  19  21
ATOM     20  C   UNL     1      -0.031   1.529  -0.067  0.00  0.00    +0.000 C 
ATOM     21  C   UNL     1      -0.000   0.001   0.001  0.00  0.00    +0.000 C 
BRANCH  21  22
ATOM     22  O   UNL     1      -1.334  -0.496   0.129  0.00  0.00    +0.000 OA
BRANCH  22  23
ATOM     23  C   UNL     1      -1.788  -0.599   1.480  0.00  0.00    +0.000 C 
BRANCH  23  24
ATOM     24  P   UNL     1      -3.437  -1.378   1.508  0.00  0.00    +0.000 P 
ATOM     25  O   UNL     1      -4.411  -0.495   0.830  0.00  0.00    +0.000 OA
ATOM     26  O   UNL     1      -3.374  -2.794   0.745  0.00  0.00    +0.000 OA
BRANCH  24  27
ATOM     27  O   UNL     1      -3.894  -1.610   3.035  0.00  0.00    +0.000 OA
ATOM     28  H   UNL     1      -3.933  -0.740   3.505  0.00  0.00    +0.000 HD
ENDBRANCH  24  27
ENDBRANCH  23  24
ENDBRANCH  22  23
ENDBRANCH  21  22
ENDBRANCH  19  21
ENDBRANCH   1  19
TORSDOF 8
ENDMDL
MODEL      730
REMARK  Name = ZINC25756940
REMARK  7 active torsions:
REMARK  status: ('A' for Active; 'I' for Inactive)
REMARK    1  A    between atoms: C_1  and  C_2
REMARK    2  A    between atoms: C_3  and  C_22
REMARK    3  A    between atoms: C_4  and  N_13
REMARK    4  A    between atoms: C_6  and  C_7
REMARK    5  A    between atoms: C_7  and  O_8
REMARK    6  A    between atoms: O_8  and  P_9
REMARK    7  A    between atoms: C_17  and  C_19
REMARK                            x       y       z     vdW  Elec       q    Type
REMARK                         _______ _______ _______ _____ _____    ______ ____
ROOT
ATOM      1  C   UNL     1      -2.155   2.155  -1.205  0.00  0.00    +0.000 C 
ATOM      2  C   UNL     1      -0.630   2.071  -1.305  0.00  0.00    +0.000 C 
ATOM      3  C   UNL     1      -0.004   3.483  -1.394  0.00  0.00    +0.000 C 
ATOM      4  C   UNL     1       1.245   3.400  -0.494  0.00  0.00    +0.000 C 
ATOM      5  O   UNL     1       1.326   2.053   0.000  0.00  0.00    +0.000 OA
ATOM      6  C   UNL     1      -0.019   1.526   0.010  0.00  0.00    +0.000 C 
ATOM      7  C   UNL     1      -0.978   4.536  -0.861  0.00  0.00    +0.000 C 
ENDROOT
BRANCH   4   8
ATOM      8  N   UNL     1       2.445   3.718  -1.272  0.00  0.00    +0.000 N 
ATOM      9  C   UNL     1       2.971   2.789  -2.047  0.00  0.00    +0.000 A 
ATOM     10  C   UNL     1       4.101   3.046  -2.802  0.00  0.00    +0.000 A 
ATOM     11  C   UNL     1       4.692   4.295  -2.734  0.00  0.00    +0.000 A 
ATOM     12  C   UNL     1       4.114   5.258  -1.899  0.00  0.00    +0.000 A 
ATOM     13  C   UNL     1       2.971   4.921  -1.173  0.00  0.00    +0.000 A 
BRANCH  12  14
ATOM     14  C   UNL     1       4.704   6.609  -1.788  0.00  0.00    +0.000 C 
ATOM     15  O   UNL     1       4.193   7.437  -1.060  0.00  0.00    +0.000 OA
ATOM     16  N   UNL     1       5.808   6.922  -2.494  0.00  0.00    +0.000 N 
ATOM     17  H   UNL     1       6.241   6.220  -3.111  0.00  0.00    +0.000 HD
ATOM     18  H   UNL     1       6.219   7.863  -2.417  0.00  0.00    +0.000 HD
ENDBRANCH  12  14
ENDBRANCH   4   8
BRANCH   6  19
ATOM     19  C   UNL     1       0.002  -0.004   0.002  0.00  0.00    +0.000 C 
BRANCH  19  20
ATOM     20  O   UNL     1       0.558  -0.480   1.229  0.00  0.00    +0.000 OA
BRANCH  20  21
ATOM     21  P   UNL     1       0.733  -2.045   1.565  0.00  0.00    +0.000 P 
ATOM     22  O   UNL     1      -0.571  -2.728   1.422  0.00  0.00    +0.000 OA
ATOM     23  O   UNL     1       1.795  -2.696   0.545  0.00  0.00    +0.000 OA
ATOM     24  O   UNL     1       1.266  -2.214   3.074  0.00  0.00    +0.000 OA
ENDBRANCH  20  21
ENDBRANCH  19  20
ENDBRANCH   6  19
TORSDOF 5
ENDMDL
MODEL      731
REMARK  Name = ZINC01674782
REMARK  8 active torsions:
REMARK  status: ('A' for Active; 'I' for Inactive)
REMARK    1  A    between atoms: C_1  and  N_2
REMARK    2  A    between atoms: C_7  and  N_19
REMARK    3  A    between atoms: C_9  and  C_11
REMARK    4  A    between atoms: C_14  and  N_16
REMARK    5  A    between atoms: N_19  and  C_20
REMARK    6  A    between atoms: N_19  and  N_23
REMARK    7  A    between atoms: C_20  and  C_21
REMARK    8  A    between atoms: C_21  and  O_22
REMARK                            x       y       z     vdW  Elec       q    Type
REMARK                         _______ _______ _______ _____ _____    ______ ____
ROOT
ATOM      1  C   UNL     1      -7.598   5.739  -1.141  0.00  0.00    +0.000 C 
ATOM      2  N   UNL     1      -6.454   6.616  -0.882  0.00  0.00    +0.000 N 
ATOM      3  C   UNL     1      -5.167   6.212  -0.677  0.00  0.00    +0.000 A 
ATOM      4  C   UNL     1      -4.408   7.382  -0.469  0.00  0.00    +0.000 A 
ATOM      5  C   UNL     1      -5.297   8.473  -0.561  0.00  0.00    +0.000 A 
ATOM      6  N   UNL     1      -6.492   8.014  -0.803  0.00  0.00    +0.000 NA
ATOM      7  C   UNL     1      -3.025   7.251  -0.228  0.00  0.00    +0.000 A 
ATOM      8  N   UNL     1      -2.499   6.034  -0.203  0.00  0.00    +0.000 NA
ATOM      9  C   UNL     1      -3.252   4.954  -0.410  0.00  0.00    +0.000 A 
ATOM     10  N   UNL     1      -4.555   5.032  -0.639  0.00  0.00    +0.000 NA
ENDROOT
BRANCH   9  11
ATOM     11  C   UNL     1      -2.614   3.625  -0.376  0.00  0.00    +0.000 A 
ATOM     12  C   UNL     1      -3.242   2.432  -0.562  0.00  0.00    +0.000 A 
ATOM     13  C   UNL     1      -2.256   1.433  -0.452  0.00  0.00    +0.000 A 
ATOM     14  C   UNL     1      -1.088   2.057  -0.199  0.00  0.00    +0.000 A 
ATOM     15  O   UNL     1      -1.307   3.380  -0.157  0.00  0.00    +0.000 OA
BRANCH  14  16
ATOM     16  N   UNL     1       0.221   1.393  -0.006  0.00  0.00    +0.000 N 
ATOM     17  O   UNL     1       0.302   0.179  -0.066  0.00  0.00    +0.000 OA
ATOM     18  O   UNL     1       1.217   2.060   0.208  0.00  0.00    +0.000 OA
ENDBRANCH  14  16
ENDBRANCH   9  11
BRANCH   7  19
ATOM     19  N   UNL     1      -2.236   8.365  -0.018  0.00  0.00    +0.000 N 
BRANCH  19  20
ATOM     20  N   UNL     1      -1.577   8.300   1.276  0.00  0.00    +0.000 NA
ATOM     21  H   UNL     1      -0.991   7.454   1.310  0.00  0.00    +0.000 HD
ATOM     22  H   UNL     1      -2.294   8.244   2.013  0.00  0.00    +0.000 HD
ENDBRANCH  19  20
BRANCH  19  23
ATOM     23  C   UNL     1      -1.256   8.528  -1.101  0.00  0.00    +0.000 C 
BRANCH  23  24
ATOM     24  C   UNL     1      -0.507   9.849  -0.915  0.00  0.00    +0.000 C 
BRANCH  24  25
ATOM     25  O   UNL     1       0.281   9.787   0.275  0.00  0.00    +0.000 OA
ATOM     26  H   UNL     1       0.933   9.046   0.202  0.00  0.00    +0.000 HD
ENDBRANCH  24  25
ENDBRANCH  23  24
ENDBRANCH  19  23
ENDBRANCH   7  19
TORSDOF 7
ENDMDL
MODEL      732
REMARK  Name = ZINC21578892
REMARK  7 active torsions:
REMARK  status: ('A' for Active; 'I' for Inactive)
REMARK    1  A    between atoms: C_1  and  C_2
REMARK    2  A    between atoms: C_2  and  C_3
REMARK    3  A    between atoms: C_3  and  C_23
REMARK    4  A    between atoms: N_6  and  N_10
REMARK    5  A    between atoms: C_11  and  C_13
REMARK    6  A    between atoms: C_13  and  N_14
REMARK    7  A    between atoms: C_17  and  C_20
REMARK                            x       y       z     vdW  Elec       q    Type
REMARK                         _______ _______ _______ _____ _____    ______ ____
ROOT
ATOM      1  N   UNL     1      -3.403  -0.315   2.807  0.00  0.00    +0.000 N 
ATOM      2  C   UNL     1      -4.127   0.122   3.856  0.00  0.00    +0.000 C 
ATOM      3  O   UNL     1      -3.981   1.255   4.264  0.00  0.00    +0.000 OA
ATOM      4  H   UNL     1      -3.528  -1.277   2.460  0.00  0.00    +0.000 HD
ENDROOT
BRANCH   1   8
ATOM      5  C   UNL     1      -1.436   1.953   0.729  0.00  0.00    +0.000 C 
ATOM      6  C   UNL     1      -2.683   1.133   0.994  0.00  0.00    +0.000 C 
ATOM      7  O   UNL     1      -3.659   1.032   0.282  0.00  0.00    +0.000 OA
ATOM      8  N   UNL     1      -2.482   0.539   2.187  0.00  0.00    +0.000 N 
ATOM      9  C   UNL     1      -1.293   0.867   2.707  0.00  0.00    +0.000 C 
ATOM     10  O   UNL     1      -0.887   0.455   3.776  0.00  0.00    +0.000 OA
ATOM     11  N   UNL     1      -0.598   1.702   1.914  0.00  0.00    +0.000 NA
ATOM     12  C   UNL     1      -0.732   1.467  -0.540  0.00  0.00    +0.000 C 
BRANCH   5  14
ATOM     13  C   UNL     1      -0.496   4.245   0.404  0.00  0.00    +0.000 C 
ATOM     14  C   UNL     1      -1.779   3.439   0.616  0.00  0.00    +0.000 C 
ENDBRANCH   5  14
ENDBRANCH   1   8
BRANCH   2  15
ATOM     15  C   UNL     1      -5.118  -0.796   4.523  0.00  0.00    +0.000 C 
BRANCH  15  16
ATOM     16  N   UNL     1      -5.664  -0.142   5.720  0.00  0.00    +0.000 NA
ATOM     17  C   UNL     1      -6.808  -0.892   6.254  0.00  0.00    +0.000 C 
ATOM     18  C   UNL     1      -7.438  -0.109   7.408  0.00  0.00    +0.000 C 
ATOM     19  C   UNL     1      -6.391   0.108   8.503  0.00  0.00    +0.000 C 
ATOM     20  C   UNL     1      -5.189   0.848   7.910  0.00  0.00    +0.000 C 
ATOM     21  C   UNL     1      -4.624   0.037   6.741  0.00  0.00    +0.000 C 
BRANCH  19  22
ATOM     22  C   UNL     1      -6.989   0.930   9.616  0.00  0.00    +0.000 C 
ATOM     23  O   UNL     1      -6.502   2.002   9.907  0.00  0.00    +0.000 OA
ATOM     24  N   UNL     1      -8.064   0.473  10.288  0.00  0.00    +0.000 N 
ATOM     25  H   UNL     1      -8.477  -0.437  10.042  0.00  0.00    +0.000 HD
ATOM     26  H   UNL     1      -8.472   1.035  11.049  0.00  0.00    +0.000 HD
ENDBRANCH  19  22
ENDBRANCH  15  16
ENDBRANCH   2  15
TORSDOF 5
ENDMDL
MODEL      733
REMARK  Name = ZINC16667621
REMARK  5 active torsions:
REMARK  status: ('A' for Active; 'I' for Inactive)
REMARK    1  A    between atoms: C_3  and  N_19
REMARK    2  A    between atoms: C_4  and  N_16
REMARK    3  A    between atoms: C_6  and  C_7
REMARK    4  A    between atoms: N_8  and  N_9
REMARK    5  A    between atoms: N_14  and  N_15
REMARK                            x       y       z     vdW  Elec       q    Type
REMARK                         _______ _______ _______ _____ _____    ______ ____
ROOT
ATOM      1  C   UNL     1      -2.006   5.404   3.739  0.00  0.00    +0.000 A 
ATOM      2  C   UNL     1      -1.425   4.917   2.614  0.00  0.00    +0.000 A 
ATOM      3  C   UNL     1      -1.417   3.534   2.365  0.00  0.00    +0.000 A 
ATOM      4  C   UNL     1      -2.001   2.645   3.284  0.00  0.00    +0.000 A 
ATOM      5  C   UNL     1      -2.582   3.118   4.415  0.00  0.00    +0.000 A 
ATOM      6  C   UNL     1      -2.598   4.513   4.670  0.00  0.00    +0.000 A 
ENDROOT
BRANCH   3   7
ATOM      7  N   UNL     1      -0.832   3.049   1.222  0.00  0.00    +0.000 N 
ATOM      8  C   UNL     1      -1.470   3.612   0.023  0.00  0.00    +0.000 C 
ATOM      9  C   UNL     1      -0.827   3.001  -1.225  0.00  0.00    +0.000 C 
ATOM     10  O   UNL     1       0.583   3.242  -1.197  0.00  0.00    +0.000 OA
ATOM     11  C   UNL     1       1.236   2.707  -0.043  0.00  0.00    +0.000 C 
ATOM     12  C   UNL     1       0.614   3.315   1.217  0.00  0.00    +0.000 C 
ENDBRANCH   3   7
BRANCH   4  13
ATOM     13  N   UNL     1      -1.984   1.190   3.015  0.00  0.00    +0.000 N 
ATOM     14  O   UNL     1      -2.622   0.364   3.819  0.00  0.00    +0.000 OA
ATOM     15  O   UNL     1      -1.330   0.720   1.973  0.00  0.00    +0.000 OA
ENDBRANCH   4  13
BRANCH   6  16
ATOM     16  C   UNL     1      -3.195   5.008   5.837  0.00  0.00    +0.000 C 
ATOM     17  N   UNL     1      -3.208   6.322   6.073  0.00  0.00    +0.000 NA
BRANCH  17  18
ATOM     18  N   UNL     1      -3.758   6.778   7.148  0.00  0.00    +0.000 N 
ATOM     19  C   UNL     1      -3.772   8.106   7.387  0.00  0.00    +0.000 A 
ATOM     20  N   UNL     1      -3.260   9.056   6.609  0.00  0.00    +0.000 NA
ATOM     21  N   UNL     1      -3.459  10.204   7.155  0.00  0.00    +0.000 NA
ATOM     22  C   UNL     1      -4.101  10.053   8.299  0.00  0.00    +0.000 A 
ATOM     23  N   UNL     1      -4.321   8.734   8.477  0.00  0.00    +0.000 N 
ATOM     24  H   UNL     1      -4.186   6.128   7.823  0.00  0.00    +0.000 HD
BRANCH  23  25
ATOM     25  N   UNL     1      -4.958   8.143   9.530  0.00  0.00    +0.000 N 
ATOM     26  H   UNL     1      -5.022   7.116   9.480  0.00  0.00    +0.000 HD
ATOM     27  H   UNL     1      -5.353   8.668  10.324  0.00  0.00    +0.000 HD
ENDBRANCH  23  25
ENDBRANCH  17  18
ENDBRANCH   6  16
TORSDOF 5
ENDMDL
MODEL      734
REMARK  Name = ZINC06413685
REMARK  8 active torsions:
REMARK  status: ('A' for Active; 'I' for Inactive)
REMARK    1  A    between atoms: C_1  and  N_2
REMARK    2  A    between atoms: N_7  and  C_10
REMARK    3  A    between atoms: C_12  and  S_14
REMARK    4  A    between atoms: S_14  and  C_15
REMARK    5  A    between atoms: C_15  and  C_16
REMARK    6  A    between atoms: N_18  and  C_19
REMARK    7  A    between atoms: C_19  and  C_20
REMARK    8  A    between atoms: C_20  and  O_21
REMARK                            x       y       z     vdW  Elec       q    Type
REMARK                         _______ _______ _______ _____ _____    ______ ____
ROOT
ATOM      1  C   UNL     1      -1.578   4.807   2.711  0.00  0.00    +0.000 C 
ATOM      2  N   UNL     1      -1.454   3.360   2.517  0.00  0.00    +0.000 N 
ATOM      3  C   UNL     1      -1.976   2.488   3.459  0.00  0.00    +0.000 A 
ATOM      4  C   UNL     1      -1.844   1.119   3.250  0.00  0.00    +0.000 A 
ATOM      5  C   UNL     1      -1.187   0.661   2.095  0.00  0.00    +0.000 A 
ATOM      6  O   UNL     1      -1.059  -0.534   1.891  0.00  0.00    +0.000 OA
ATOM      7  N   UNL     1      -0.698   1.558   1.213  0.00  0.00    +0.000 N 
ATOM      8  C   UNL     1      -0.827   2.879   1.427  0.00  0.00    +0.000 A 
ATOM      9  O   UNL     1      -0.369   3.659   0.614  0.00  0.00    +0.000 OA
ATOM     10  C   UNL     1      -0.013   1.086   0.008  0.00  0.00    +0.000 C 
ATOM     11  N   UNL     1      -2.450   0.497   4.334  0.00  0.00    +0.000 NA
ATOM     12  C   UNL     1      -2.916   1.488   5.142  0.00  0.00    +0.000 A 
ATOM     13  N   UNL     1      -2.628   2.659   4.610  0.00  0.00    +0.000 NA
ENDROOT
BRANCH  12  14
ATOM     14  S   UNL     1      -3.771   1.243   6.663  0.00  0.00    +0.000 S 
BRANCH  14  15
ATOM     15  C   UNL     1      -4.058   2.964   7.143  0.00  0.00    +0.000 C 
BRANCH  15  16
ATOM     16  C   UNL     1      -4.799   3.004   8.455  0.00  0.00    +0.000 C 
ATOM     17  O   UNL     1      -5.102   1.970   9.011  0.00  0.00    +0.000 OA
ATOM     18  N   UNL     1      -5.123   4.188   9.010  0.00  0.00    +0.000 N 
ATOM     19  H   UNL     1      -4.866   5.066   8.538  0.00  0.00    +0.000 HD
BRANCH  18  20
ATOM     20  C   UNL     1      -5.843   4.226  10.286  0.00  0.00    +0.000 C 
BRANCH  20  21
ATOM     21  C   UNL     1      -6.086   5.681  10.691  0.00  0.00    +0.000 C 
BRANCH  21  22
ATOM     22  O   UNL     1      -6.960   6.300   9.745  0.00  0.00    +0.000 OA
ATOM     23  H   UNL     1      -7.823   5.815   9.726  0.00  0.00    +0.000 HD
ENDBRANCH  21  22
ENDBRANCH  20  21
ENDBRANCH  18  20
ENDBRANCH  15  16
ENDBRANCH  14  15
ENDBRANCH  12  14
TORSDOF 6
ENDMDL
MODEL      735
REMARK  Name = ZINC29829551
REMARK  5 active torsions:
REMARK  status: ('A' for Active; 'I' for Inactive)
REMARK    1  A    between atoms: C_1  and  C_2
REMARK    2  A    between atoms: C_3  and  C_12
REMARK    3  A    between atoms: N_14  and  C_15
REMARK    4  A    between atoms: C_15  and  C_16
REMARK    5  A    between atoms: C_16  and  N_17
REMARK                            x       y       z     vdW  Elec       q    Type
REMARK                         _______ _______ _______ _____ _____    ______ ____
ROOT
ATOM      1  C   UNL     1       4.428  -1.553  -0.048  0.00  0.00    +0.000 C 
ATOM      2  O   UNL     1       4.674  -2.100  -1.107  0.00  0.00    +0.000 OA
ATOM      3  N   UNL     1       4.723  -2.171   1.113  0.00  0.00    +0.000 N 
ATOM      4  H   UNL     1       4.515  -1.708   2.009  0.00  0.00    +0.000 HD
ENDROOT
BRANCH   1   7
ATOM      5  C   UNL     1       5.939   1.178  -0.049  0.00  0.00    +0.000 C 
ATOM      6  C   UNL     1       4.445   0.985  -0.035  0.00  0.00    +0.000 A 
ATOM      7  C   UNL     1       3.808  -0.218  -0.036  0.00  0.00    +0.000 A 
ATOM      8  C   UNL     1       2.370   0.096  -0.020  0.00  0.00    +0.000 A 
ATOM      9  C   UNL     1       1.182  -0.666  -0.013  0.00  0.00    +0.000 A 
ATOM     10  O   UNL     1       1.218  -1.885  -0.019  0.00  0.00    +0.000 OA
ATOM     11  N   UNL     1       0.002  -0.004   0.002  0.00  0.00    +0.000 N 
ATOM     12  C   UNL     1      -0.016   1.352   0.009  0.00  0.00    +0.000 A 
ATOM     13  N   UNL     1       1.075   2.065   0.003  0.00  0.00    +0.000 NA
ATOM     14  C   UNL     1       2.286   1.488  -0.012  0.00  0.00    +0.000 A 
ATOM     15  O   UNL     1       3.539   1.972  -0.021  0.00  0.00    +0.000 OA
ATOM     16  H   UNL     1      -0.883  -0.531   0.008  0.00  0.00    +0.000 HD
ENDBRANCH   1   7
BRANCH   3  17
ATOM     17  C   UNL     1       5.340  -3.499   1.100  0.00  0.00    +0.000 C 
BRANCH  17  18
ATOM     18  C   UNL     1       5.569  -3.969   2.538  0.00  0.00    +0.000 C 
BRANCH  18  19
ATOM     19  N   UNL     1       6.186  -5.298   2.526  0.00  0.00    +0.000 N 
ATOM     20  C   UNL     1       6.490  -5.934   3.723  0.00  0.00    +0.000 A 
ATOM     21  C   UNL     1       6.209  -5.310   4.937  0.00  0.00    +0.000 A 
ATOM     22  N   UNL     1       6.499  -5.918   6.072  0.00  0.00    +0.000 NA
ATOM     23  C   UNL     1       7.056  -7.118   6.057  0.00  0.00    +0.000 A 
ATOM     24  C   UNL     1       7.335  -7.740   4.856  0.00  0.00    +0.000 A 
ATOM     25  N   UNL     1       7.043  -7.140   3.714  0.00  0.00    +0.000 NA
ATOM     26  H   UNL     1       6.394  -5.760   1.629  0.00  0.00    +0.000 HD
ENDBRANCH  18  19
ENDBRANCH  17  18
ENDBRANCH   3  17
TORSDOF 4
ENDMDL
MODEL      736
REMARK  Name = ZINC20546223
REMARK  5 active torsions:
REMARK  status: ('A' for Active; 'I' for Inactive)
REMARK    1  A    between atoms: C_3  and  N_11
REMARK    2  A    between atoms: C_5  and  S_7
REMARK    3  A    between atoms: S_7  and  N_10
REMARK    4  A    between atoms: N_11  and  S_12
REMARK    5  A    between atoms: S_12  and  C_15
REMARK                            x       y       z     vdW  Elec       q    Type
REMARK                         _______ _______ _______ _____ _____    ______ ____
ROOT
ATOM      1  N   UNL     1      -0.068   5.361   0.110  0.00  0.00    +0.000 N 
ATOM      2  H   UNL     1       0.608   4.652  -0.209  0.00  0.00    +0.000 HD
ENDROOT
BRANCH   1   5
ATOM      3  C   UNL     1      -0.086   7.606   3.019  0.00  0.00    +0.000 A 
ATOM      4  C   UNL     1      -0.110   7.168   1.709  0.00  0.00    +0.000 A 
ATOM      5  C   UNL     1      -0.038   5.808   1.433  0.00  0.00    +0.000 A 
ATOM      6  C   UNL     1       0.063   4.895   2.474  0.00  0.00    +0.000 A 
ATOM      7  C   UNL     1       0.091   5.341   3.781  0.00  0.00    +0.000 A 
ATOM      8  C   UNL     1       0.020   6.695   4.053  0.00  0.00    +0.000 A 
BRANCH   7   9
ATOM      9  S   UNL     1       0.220   4.183   5.103  0.00  0.00    +0.000 S 
ATOM     10  O   UNL     1       0.821   3.014   4.563  0.00  0.00    +0.000 OA
ATOM     11  O   UNL     1       0.777   4.886   6.205  0.00  0.00    +0.000 OA
BRANCH   9  12
ATOM     12  N   UNL     1      -1.322   3.765   5.539  0.00  0.00    +0.000 NA
ATOM     13  H   UNL     1      -1.576   2.772   5.643  0.00  0.00    +0.000 HD
ATOM     14  H   UNL     1      -2.027   4.497   5.706  0.00  0.00    +0.000 HD
ENDBRANCH   9  12
ENDBRANCH   7   9
ENDBRANCH   1   5
BRANCH   1  15
ATOM     15  S   UNL     1      -1.190   5.970  -0.945  0.00  0.00    +0.000 S 
ATOM     16  O   UNL     1      -1.010   7.379  -0.892  0.00  0.00    +0.000 OA
ATOM     17  O   UNL     1      -0.973   5.258  -2.156  0.00  0.00    +0.000 OA
BRANCH  15  18
ATOM     18  C   UNL     1      -2.795   5.517  -0.232  0.00  0.00    +0.000 C 
ATOM     19  C   UNL     1      -3.915   5.929  -1.192  0.00  0.00    +0.000 C 
ATOM     20  C   UNL     1      -5.262   5.490  -0.611  0.00  0.00    +0.000 C 
ATOM     21  C   UNL     1      -5.243   3.977  -0.381  0.00  0.00    +0.000 C 
ATOM     22  N   UNL     1      -4.155   3.634   0.544  0.00  0.00    +0.000 N 
ATOM     23  C   UNL     1      -2.848   4.004  -0.014  0.00  0.00    +0.000 C 
ATOM     24  H   UNL     1      -4.171   2.620   0.726  0.00  0.00    +0.000 HD
ATOM     25  H   UNL     1      -4.297   4.132   1.434  0.00  0.00    +0.000 HD
ENDBRANCH  15  18
ENDBRANCH   1  15
TORSDOF 5
ENDMDL
MODEL      737
REMARK  Name = ZINC06380326
REMARK  11 active torsions:
REMARK  status: ('A' for Active; 'I' for Inactive)
REMARK    1  A    between atoms: C_1  and  O_2
REMARK    2  A    between atoms: O_2  and  C_3
REMARK    3  A    between atoms: C_4  and  O_22
REMARK    4  A    between atoms: C_5  and  O_12
REMARK    5  A    between atoms: C_6  and  O_11
REMARK    6  A    between atoms: C_7  and  C_9
REMARK    7  A    between atoms: C_9  and  O_10
REMARK    8  A    between atoms: O_12  and  C_13
REMARK    9  A    between atoms: C_14  and  O_21
REMARK   10  A    between atoms: C_15  and  O_20
REMARK   11  A    between atoms: C_16  and  O_19
REMARK                            x       y       z     vdW  Elec       q    Type
REMARK                         _______ _______ _______ _____ _____    ______ ____
ROOT
ATOM      1  C   UNL     1      -2.037   1.106   1.292  0.00  0.00    +0.000 C 
ATOM      2  C   UNL     1      -2.725   1.849   2.440  0.00  0.00    +0.000 C 
ATOM      3  C   UNL     1      -2.018   1.506   3.756  0.00  0.00    +0.000 C 
ATOM      4  C   UNL     1      -2.037  -0.013   3.952  0.00  0.00    +0.000 C 
ATOM      5  C   UNL     1      -1.375  -0.683   2.745  0.00  0.00    +0.000 C 
ATOM      6  O   UNL     1      -2.062  -0.299   1.552  0.00  0.00    +0.000 OA
ENDROOT
BRANCH   2   7
ATOM      7  O   UNL     1      -4.094   1.448   2.515  0.00  0.00    +0.000 OA
ATOM      8  H   UNL     1      -4.145   0.472   2.677  0.00  0.00    +0.000 HD
ENDBRANCH   2   7
BRANCH   4   9
ATOM      9  O   UNL     1      -1.317  -0.349   5.140  0.00  0.00    +0.000 OA
ATOM     10  H   UNL     1      -1.742   0.089   5.919  0.00  0.00    +0.000 HD
ENDBRANCH   4   9
BRANCH   1  12
ATOM     11  C   UNL     1      -0.013   1.086   0.008  0.00  0.00    +0.000 C 
ATOM     12  O   UNL     1      -0.682   1.547   1.184  0.00  0.00    +0.000 OA
ENDBRANCH   1  12
BRANCH   5  13
ATOM     13  C   UNL     1      -1.443  -2.203   2.906  0.00  0.00    +0.000 C 
BRANCH  13  14
ATOM     14  O   UNL     1      -0.725  -2.827   1.839  0.00  0.00    +0.000 OA
ATOM     15  H   UNL     1       0.221  -2.536   1.861  0.00  0.00    +0.000 HD
ENDBRANCH  13  14
ENDBRANCH   5  13
BRANCH   3  16
ATOM     16  O   UNL     1      -2.699   2.137   4.842  0.00  0.00    +0.000 OA
BRANCH  16  17
ATOM     17  C   UNL     1      -2.209   3.442   5.156  0.00  0.00    +0.000 C 
ATOM     18  C   UNL     1      -3.085   4.069   6.244  0.00  0.00    +0.000 C 
ATOM     19  C   UNL     1      -2.518   5.442   6.617  0.00  0.00    +0.000 C 
ATOM     20  C   UNL     1      -1.063   5.277   7.066  0.00  0.00    +0.000 C 
ATOM     21  C   UNL     1      -0.265   4.603   5.947  0.00  0.00    +0.000 C 
ATOM     22  O   UNL     1      -0.863   3.346   5.627  0.00  0.00    +0.000 OA
BRANCH  18  23
ATOM     23  O   UNL     1      -4.419   4.220   5.754  0.00  0.00    +0.000 OA
ATOM     24  H   UNL     1      -4.783   3.333   5.508  0.00  0.00    +0.000 HD
ENDBRANCH  18  23
BRANCH  20  25
ATOM     25  O   UNL     1      -0.502   6.560   7.349  0.00  0.00    +0.000 OA
ATOM     26  H   UNL     1      -1.021   6.996   8.070  0.00  0.00    +0.000 HD
ENDBRANCH  20  25
BRANCH  19  27
ATOM     27  O   UNL     1      -3.287   6.003   7.684  0.00  0.00    +0.000 OA
ATOM     28  H   UNL     1      -3.245   5.404   8.471  0.00  0.00    +0.000 HD
ENDBRANCH  19  27
ENDBRANCH  16  17
ENDBRANCH   3  16
TORSDOF 10
ENDMDL
MODEL      738
REMARK  Name = ZINC29823259
REMARK  6 active torsions:
REMARK  status: ('A' for Active; 'I' for Inactive)
REMARK    1  A    between atoms: C_1  and  N_2
REMARK    2  A    between atoms: C_5  and  N_21
REMARK    3  A    between atoms: C_6  and  N_7
REMARK    4  A    between atoms: N_10  and  C_13
REMARK    5  A    between atoms: C_13  and  C_14
REMARK    6  A    between atoms: C_14  and  C_15
REMARK                            x       y       z     vdW  Elec       q    Type
REMARK                         _______ _______ _______ _____ _____    ______ ____
ROOT
ATOM      1  N   UNL     1      -0.143   0.303  -0.171  0.00  0.00    +0.000 N 
ATOM      2  C   UNL     1      -0.335   1.728   0.133  0.00  0.00    +0.000 C 
ATOM      3  C   UNL     1       1.005   2.458   0.010  0.00  0.00    +0.000 C 
ATOM      4  N   UNL     1       1.976   1.852   0.931  0.00  0.00    +0.000 NA
ATOM      5  C   UNL     1       2.168   0.427   0.627  0.00  0.00    +0.000 C 
ATOM      6  C   UNL     1       0.828  -0.303   0.750  0.00  0.00    +0.000 C 
ENDROOT
BRANCH   1  12
ATOM      7  C   UNL     1      -2.122   0.281   2.182  0.00  0.00    +0.000 C 
ATOM      8  N   UNL     1      -2.256  -0.408   0.896  0.00  0.00    +0.000 N 
ATOM      9  C   UNL     1      -3.297  -1.193   0.503  0.00  0.00    +0.000 A 
ATOM     10  N   UNL     1      -3.057  -1.634  -0.700  0.00  0.00    +0.000 NA
ATOM     11  C   UNL     1      -1.876  -1.156  -1.123  0.00  0.00    +0.000 A 
ATOM     12  C   UNL     1      -1.359  -0.382  -0.139  0.00  0.00    +0.000 A 
BRANCH  11  13
ATOM     13  N   UNL     1      -1.248  -1.426  -2.437  0.00  0.00    +0.000 N 
ATOM     14  O   UNL     1      -0.140  -0.987  -2.684  0.00  0.00    +0.000 OA
ATOM     15  O   UNL     1      -1.841  -2.087  -3.270  0.00  0.00    +0.000 OA
ENDBRANCH  11  13
ENDBRANCH   1  12
BRANCH   4  16
ATOM     16  C   UNL     1       3.255   2.574   0.898  0.00  0.00    +0.000 C 
BRANCH  16  17
ATOM     17  C   UNL     1       3.059   3.985   1.457  0.00  0.00    +0.000 C 
BRANCH  17  18
ATOM     18  C   UNL     1       4.371   4.725   1.423  0.00  0.00    +0.000 C 
ATOM     19  O   UNL     1       5.364   4.179   0.993  0.00  0.00    +0.000 OA
ATOM     20  N   UNL     1       4.440   5.995   1.869  0.00  0.00    +0.000 N 
ATOM     21  C   UNL     1       5.613   6.657   1.839  0.00  0.00    +0.000 C 
ATOM     22  O   UNL     1       6.609   6.110   1.408  0.00  0.00    +0.000 OA
ATOM     23  N   UNL     1       5.682   7.927   2.285  0.00  0.00    +0.000 N 
ATOM     24  H   UNL     1       3.596   6.459   2.234  0.00  0.00    +0.000 HD
ATOM     25  H   UNL     1       4.838   8.391   2.650  0.00  0.00    +0.000 HD
ATOM     26  H   UNL     1       6.579   8.433   2.262  0.00  0.00    +0.000 HD
ENDBRANCH  17  18
ENDBRANCH  16  17
ENDBRANCH   4  16
TORSDOF 5
ENDMDL
MODEL      739
REMARK  Name = ZINC08713733
REMARK  6 active torsions:
REMARK  status: ('A' for Active; 'I' for Inactive)
REMARK    1  A    between atoms: C_1  and  N_2
REMARK    2  A    between atoms: C_3  and  C_5
REMARK    3  A    between atoms: C_5  and  C_8
REMARK    4  A    between atoms: N_10  and  N_11
REMARK    5  A    between atoms: C_13  and  C_16
REMARK    6  A    between atoms: C_16  and  N_18
REMARK                            x       y       z     vdW  Elec       q    Type
REMARK                         _______ _______ _______ _____ _____    ______ ____
ROOT
ATOM      1  C   UNL     1      -3.976   6.725   0.527  0.00  0.00    +0.000 C 
ATOM      2  O   UNL     1      -4.502   5.630   0.464  0.00  0.00    +0.000 OA
ATOM      3  N   UNL     1      -2.633   6.831   0.471  0.00  0.00    +0.000 N 
ATOM      4  H   UNL     1      -2.187   7.758   0.525  0.00  0.00    +0.000 HD
ENDROOT
BRANCH   3   5
ATOM      5  N   UNL     1      -1.844   5.681   0.339  0.00  0.00    +0.000 N 
ATOM      6  C   UNL     1      -2.285   4.409   0.251  0.00  0.00    +0.000 A 
ATOM      7  C   UNL     1      -1.179   3.614   0.139  0.00  0.00    +0.000 A 
ATOM      8  N   UNL     1      -0.088   4.399   0.149  0.00  0.00    +0.000 NA
ATOM      9  N   UNL     1      -0.445   5.631   0.267  0.00  0.00    +0.000 NA
BRANCH   7  10
ATOM     10  C   UNL     1      -1.183   2.145   0.019  0.00  0.00    +0.000 C 
ATOM     11  S   UNL     1      -2.663   1.305  -0.162  0.00  0.00    +0.000 S 
BRANCH  10  12
ATOM     12  N   UNL     1      -0.020   1.464   0.053  0.00  0.00    +0.000 N 
ATOM     13  C   UNL     1       1.270   2.169   0.119  0.00  0.00    +0.000 C 
ATOM     14  C   UNL     1       2.094   1.562   1.261  0.00  0.00    +0.000 C 
ATOM     15  O   UNL     1       2.154   0.144   1.096  0.00  0.00    +0.000 OA
ATOM     16  C   UNL     1       0.883  -0.508   1.165  0.00  0.00    +0.000 C 
ATOM     17  C   UNL     1      -0.004  -0.007   0.018  0.00  0.00    +0.000 C 
ENDBRANCH  10  12
ENDBRANCH   7  10
ENDBRANCH   3   5
BRANCH   1  18
ATOM     18  C   UNL     1      -4.800   7.927   0.665  0.00  0.00    +0.000 C 
ATOM     19  N   UNL     1      -4.259   9.052   0.731  0.00  0.00    +0.000 NA
ATOM     20  N   UNL     1      -3.772  10.063   0.789  0.00  0.00    +0.000 NA
ATOM     21  H   UNL     1      -2.746  10.140   0.823  0.00  0.00    +0.000 HD
BRANCH  18  24
ATOM     22  C   UNL     1      -8.476   8.802   0.914  0.00  0.00    +0.000 C 
ATOM     23  N   UNL     1      -7.017   8.918   0.853  0.00  0.00    +0.000 N 
ATOM     24  C   UNL     1      -6.258   7.811   0.726  0.00  0.00    +0.000 C 
ATOM     25  O   UNL     1      -6.785   6.716   0.663  0.00  0.00    +0.000 OA
ATOM     26  H   UNL     1      -6.571   9.844   0.907  0.00  0.00    +0.000 HD
ENDBRANCH  18  24
ENDBRANCH   1  18
TORSDOF 5
ENDMDL
MODEL      740
REMARK  Name = ZINC06512560
REMARK  8 active torsions:
REMARK  status: ('A' for Active; 'I' for Inactive)
REMARK    1  A    between atoms: C_3  and  N_21
REMARK    2  A    between atoms: C_6  and  N_7
REMARK    3  A    between atoms: N_7  and  N_8
REMARK    4  A    between atoms: C_9  and  N_11
REMARK    5  A    between atoms: N_12  and  C_13
REMARK    6  A    between atoms: C_13  and  C_15
REMARK    7  A    between atoms: N_21  and  O_22
REMARK    8  A    between atoms: N_21  and  O_23
REMARK                            x       y       z     vdW  Elec       q    Type
REMARK                         _______ _______ _______ _____ _____    ______ ____
ROOT
ATOM      1  N   UNL     1       2.455  -2.766  -0.036  0.00  0.00    +0.000 N 
ATOM      2  C   UNL     1       2.474  -4.113  -0.043  0.00  0.00    +0.000 C 
ATOM      3  O   UNL     1       3.534  -4.706  -0.056  0.00  0.00    +0.000 OA
ATOM      4  H   UNL     1       3.340  -2.239  -0.042  0.00  0.00    +0.000 HD
ENDROOT
BRANCH   2   5
ATOM      5  N   UNL     1       1.316  -4.803  -0.035  0.00  0.00    +0.000 NA
ATOM      6  N   UNL     1       1.333  -6.043  -0.041  0.00  0.00    +0.000 NA
BRANCH   6   7
ATOM      7  C   UNL     1       0.175  -6.733  -0.034  0.00  0.00    +0.000 C 
ATOM      8  O   UNL     1      -0.885  -6.140  -0.020  0.00  0.00    +0.000 OA
BRANCH   7   9
ATOM      9  C   UNL     1       0.195  -8.212  -0.041  0.00  0.00    +0.000 A 
ATOM     10  C   UNL     1       1.405  -8.916  -0.062  0.00  0.00    +0.000 A 
ATOM     11  C   UNL     1       1.377 -10.296  -0.063  0.00  0.00    +0.000 A 
ATOM     12  N   UNL     1       0.232 -10.950  -0.055  0.00  0.00    +0.000 NA
ATOM     13  C   UNL     1      -0.930 -10.328  -0.041  0.00  0.00    +0.000 A 
ATOM     14  C   UNL     1      -0.996  -8.948  -0.033  0.00  0.00    +0.000 A 
ENDBRANCH   7   9
ENDBRANCH   6   7
ENDBRANCH   2   5
BRANCH   1  15
ATOM     15  N   UNL     1       1.233  -2.082  -0.021  0.00  0.00    +0.000 N 
ATOM     16  H   UNL     1       0.348  -2.609  -0.015  0.00  0.00    +0.000 HD
BRANCH  15  22
ATOM     17  C   UNL     1       0.002  -0.004   0.002  0.00  0.00    +0.000 A 
ATOM     18  C   UNL     1      -0.017   1.377   0.010  0.00  0.00    +0.000 A 
ATOM     19  C   UNL     1       1.176   2.087   0.002  0.00  0.00    +0.000 A 
ATOM     20  C   UNL     1       2.388   1.409  -0.013  0.00  0.00    +0.000 A 
ATOM     21  C   UNL     1       2.407   0.029  -0.021  0.00  0.00    +0.000 A 
ATOM     22  C   UNL     1       1.214  -0.682  -0.013  0.00  0.00    +0.000 A 
BRANCH  19  23
ATOM     23  N   UNL     1       1.157   3.487   0.010  0.00  0.00    +0.000 N 
BRANCH  23  24
ATOM     24  O   UNL     1      -0.078   4.178   0.025  0.00  0.00    +0.000 OA
ATOM     25  H   UNL     1      -0.552   3.836   0.824  0.00  0.00    +0.000 HD
ENDBRANCH  23  24
BRANCH  23  26
ATOM     26  O   UNL     1       2.374   4.212   0.002  0.00  0.00    +0.000 OA
ATOM     27  H   UNL     1       2.857   3.891  -0.800  0.00  0.00    +0.000 HD
ENDBRANCH  23  26
ENDBRANCH  19  23
ENDBRANCH  15  22
ENDBRANCH   1  15
TORSDOF 8
ENDMDL
MODEL      741
REMARK  Name = ZINC09636029
REMARK  8 active torsions:
REMARK  status: ('A' for Active; 'I' for Inactive)
REMARK    1  A    between atoms: C_1  and  C_2
REMARK    2  A    between atoms: N_9  and  N_10
REMARK    3  A    between atoms: C_11  and  C_12
REMARK    4  A    between atoms: C_14  and  O_21
REMARK    5  A    between atoms: C_15  and  O_20
REMARK    6  A    between atoms: C_16  and  O_18
REMARK    7  A    between atoms: O_18  and  C_19
REMARK    8  A    between atoms: O_21  and  C_22
REMARK                            x       y       z     vdW  Elec       q    Type
REMARK                         _______ _______ _______ _____ _____    ______ ____
ROOT
ATOM      1  N   UNL     1      -5.802  -1.252  -0.281  0.00  0.00    +0.000 NA
ATOM      2  C   UNL     1      -4.567  -0.886  -0.440  0.00  0.00    +0.000 C 
ENDROOT
BRANCH   1  11
ATOM      3  C   UNL     1     -11.703  -3.526  -0.392  0.00  0.00    +0.000 C 
ATOM      4  C   UNL     1     -10.268  -3.147  -0.654  0.00  0.00    +0.000 A 
ATOM      5  C   UNL     1      -9.611  -3.604  -1.818  0.00  0.00    +0.000 A 
ATOM      6  O   UNL     1     -10.190  -4.309  -2.627  0.00  0.00    +0.000 OA
ATOM      7  N   UNL     1      -8.323  -3.237  -2.009  0.00  0.00    +0.000 NA
ATOM      8  C   UNL     1      -7.724  -2.448  -1.073  0.00  0.00    +0.000 A 
ATOM      9  N   UNL     1      -8.392  -2.057  -0.001  0.00  0.00    +0.000 NA
ATOM     10  N   UNL     1      -9.617  -2.389   0.198  0.00  0.00    +0.000 NA
ATOM     11  N   UNL     1      -6.422  -2.063  -1.241  0.00  0.00    +0.000 N 
ATOM     12  H   UNL     1      -5.897  -2.369  -2.072  0.00  0.00    +0.000 HD
ENDBRANCH   1  11
BRANCH   2  13
ATOM     13  C   UNL     1      -3.914  -0.033   0.569  0.00  0.00    +0.000 A 
ATOM     14  C   UNL     1      -4.625   0.384   1.698  0.00  0.00    +0.000 A 
ATOM     15  C   UNL     1      -4.010   1.185   2.644  0.00  0.00    +0.000 A 
ATOM     16  C   UNL     1      -2.684   1.571   2.474  0.00  0.00    +0.000 A 
ATOM     17  C   UNL     1      -1.976   1.163   1.348  0.00  0.00    +0.000 A 
ATOM     18  C   UNL     1      -2.585   0.362   0.399  0.00  0.00    +0.000 A 
BRANCH  17  19
ATOM     19  O   UNL     1      -0.682   1.547   1.184  0.00  0.00    +0.000 OA
ATOM     20  C   UNL     1      -0.013   1.086   0.008  0.00  0.00    +0.000 C 
ENDBRANCH  17  19
BRANCH  16  21
ATOM     21  O   UNL     1      -2.081   2.355   3.408  0.00  0.00    +0.000 OA
ATOM     22  H   UNL     1      -2.175   1.857   4.259  0.00  0.00    +0.000 HD
ENDBRANCH  16  21
BRANCH  15  23
ATOM     23  O   UNL     1      -4.701   1.591   3.743  0.00  0.00    +0.000 OA
ATOM     24  C   UNL     1      -6.056   1.152   3.856  0.00  0.00    +0.000 C 
ENDBRANCH  15  23
ENDBRANCH   2  13
TORSDOF 5
ENDMDL
MODEL      742
REMARK  Name = ZINC04939795
REMARK  8 active torsions:
REMARK  status: ('A' for Active; 'I' for Inactive)
REMARK    1  A    between atoms: C_1  and  C_2
REMARK    2  A    between atoms: C_5  and  O_20
REMARK    3  A    between atoms: C_6  and  N_8
REMARK    4  A    between atoms: C_9  and  C_11
REMARK    5  A    between atoms: C_11  and  C_12
REMARK    6  A    between atoms: C_12  and  C_13
REMARK    7  A    between atoms: C_12  and  N_22
REMARK    8  A    between atoms: C_19  and  N_23
REMARK                            x       y       z     vdW  Elec       q    Type
REMARK                         _______ _______ _______ _____ _____    ______ ____
ROOT
ATOM      1  N   UNL     1       2.356   3.900   0.001  0.00  0.00    +0.000 N 
ATOM      2  C   UNL     1       2.333   5.244  -0.094  0.00  0.00    +0.000 C 
ATOM      3  O   UNL     1       1.274   5.835  -0.082  0.00  0.00    +0.000 OA
ATOM      4  H   UNL     1       3.256   3.403   0.059  0.00  0.00    +0.000 HD
ENDROOT
BRANCH   1  10
ATOM      5  C   UNL     1      -2.369   3.579   1.324  0.00  0.00    +0.000 C 
ATOM      6  C   UNL     1      -1.151   2.998   0.654  0.00  0.00    +0.000 A 
ATOM      7  C   UNL     1      -1.221   1.755   0.053  0.00  0.00    +0.000 A 
ATOM      8  C   UNL     1      -0.106   1.214  -0.559  0.00  0.00    +0.000 A 
ATOM      9  C   UNL     1       1.084   1.923  -0.581  0.00  0.00    +0.000 A 
ATOM     10  C   UNL     1       1.155   3.178   0.019  0.00  0.00    +0.000 A 
ATOM     11  C   UNL     1       0.033   3.712   0.636  0.00  0.00    +0.000 A 
BRANCH   9  12
ATOM     12  O   UNL     1       2.181   1.396  -1.188  0.00  0.00    +0.000 OA
ATOM     13  H   UNL     1       1.892   1.205  -2.115  0.00  0.00    +0.000 HD
ENDBRANCH   9  12
ENDBRANCH   1  10
BRANCH   2  14
ATOM     14  C   UNL     1       3.624   6.013  -0.215  0.00  0.00    +0.000 C 
BRANCH  14  15
ATOM     15  C   UNL     1       3.319   7.509  -0.307  0.00  0.00    +0.000 C 
BRANCH  15  21
ATOM     16  C   UNL     1       3.384   7.418  -2.726  0.00  0.00    +0.000 C 
ATOM     17  C   UNL     1       2.556   7.645  -3.993  0.00  0.00    +0.000 C 
ATOM     18  C   UNL     1       1.343   9.420  -2.881  0.00  0.00    +0.000 C 
ATOM     19  C   UNL     1       2.171   9.193  -1.614  0.00  0.00    +0.000 C 
ATOM     20  C   UNL     1       1.408   9.329  -5.300  0.00  0.00    +0.000 C 
ATOM     21  N   UNL     1       2.561   7.769  -1.549  0.00  0.00    +0.000 N 
ATOM     22  N   UNL     1       2.166   9.069  -4.058  0.00  0.00    +0.000 NA
ATOM     23  H   UNL     1       1.711   7.188  -1.550  0.00  0.00    +0.000 HD
ENDBRANCH  15  21
BRANCH  15  24
ATOM     24  C   UNL     1       4.611   8.286  -0.304  0.00  0.00    +0.000 C 
ATOM     25  O   UNL     1       4.891   8.996  -1.241  0.00  0.00    +0.000 OA
ATOM     26  O   UNL     1       5.450   8.188   0.739  0.00  0.00    +0.000 OA
ENDBRANCH  15  24
ENDBRANCH  14  15
ENDBRANCH   2  14
TORSDOF 6
ENDMDL
MODEL      743
REMARK  Name = ZINC30516950
REMARK  5 active torsions:
REMARK  status: ('A' for Active; 'I' for Inactive)
REMARK    1  A    between atoms: C_3  and  C_6
REMARK    2  A    between atoms: C_8  and  C_11
REMARK    3  A    between atoms: N_13  and  N_14
REMARK    4  A    between atoms: C_15  and  C_17
REMARK    5  A    between atoms: C_19  and  N_22
REMARK                            x       y       z     vdW  Elec       q    Type
REMARK                         _______ _______ _______ _____ _____    ______ ____
ROOT
ATOM      1  C   UNL     1      -1.187   1.624   0.017  0.00  0.00    +0.000 C 
ATOM      2  O   UNL     1      -1.204   2.839   0.023  0.00  0.00    +0.000 OA
ATOM      3  N   UNL     1      -0.011   0.966   0.007  0.00  0.00    +0.000 N 
ATOM      4  H   UNL     1       0.003  -0.064   0.006  0.00  0.00    +0.000 HD
ENDROOT
BRANCH   1   7
ATOM      5  C   UNL     1      -4.606   0.343   0.025  0.00  0.00    +0.000 A 
ATOM      6  C   UNL     1      -3.756   1.417   0.028  0.00  0.00    +0.000 A 
ATOM      7  C   UNL     1      -2.457   0.868   0.018  0.00  0.00    +0.000 A 
ATOM      8  N   UNL     1      -2.584  -0.445   0.006  0.00  0.00    +0.000 NA
ATOM      9  N   UNL     1      -3.824  -0.777   0.015  0.00  0.00    +0.000 N 
ATOM     10  H   UNL     1      -4.177  -1.744   0.015  0.00  0.00    +0.000 HD
BRANCH   5  13
ATOM     11  C   UNL     1      -8.226  -0.188   0.041  0.00  0.00    +0.000 A 
ATOM     12  C   UNL     1      -6.911  -0.691   0.030  0.00  0.00    +0.000 A 
ATOM     13  C   UNL     1      -6.079   0.387   0.033  0.00  0.00    +0.000 A 
ATOM     14  O   UNL     1      -6.837   1.500   0.049  0.00  0.00    +0.000 OA
ATOM     15  C   UNL     1      -8.136   1.156   0.049  0.00  0.00    +0.000 A 
ENDBRANCH   5  13
ENDBRANCH   1   7
BRANCH   3  16
ATOM     16  N   UNL     1       1.193   1.683  -0.000  0.00  0.00    +0.000 N 
ATOM     17  C   UNL     1       2.369   1.025  -0.015  0.00  0.00    +0.000 C 
ATOM     18  O   UNL     1       2.385  -0.192  -0.022  0.00  0.00    +0.000 OA
ATOM     19  H   UNL     1       1.179   2.713   0.005  0.00  0.00    +0.000 HD
BRANCH  17  20
ATOM     20  C   UNL     1       3.629   1.776  -0.023  0.00  0.00    +0.000 A 
ATOM     21  C   UNL     1       4.898   1.237  -0.033  0.00  0.00    +0.000 A 
ATOM     22  C   UNL     1       5.798   2.307  -0.041  0.00  0.00    +0.000 A 
ATOM     23  C   UNL     1       5.079   3.455  -0.028  0.00  0.00    +0.000 A 
ATOM     24  N   UNL     1       3.760   3.146  -0.017  0.00  0.00    +0.000 N 
ATOM     25  H   UNL     1       2.984   3.823  -0.005  0.00  0.00    +0.000 HD
BRANCH  22  26
ATOM     26  N   UNL     1       7.275   2.204  -0.056  0.00  0.00    +0.000 N 
ATOM     27  O   UNL     1       7.956   3.213  -0.057  0.00  0.00    +0.000 OA
ATOM     28  O   UNL     1       7.809   1.109  -0.067  0.00  0.00    +0.000 OA
ENDBRANCH  22  26
ENDBRANCH  17  20
ENDBRANCH   3  16
TORSDOF 5
ENDMDL
MODEL      744
REMARK  Name = ZINC18276662
REMARK  8 active torsions:
REMARK  status: ('A' for Active; 'I' for Inactive)
REMARK    1  A    between atoms: C_1  and  O_2
REMARK    2  A    between atoms: O_2  and  C_3
REMARK    3  A    between atoms: C_5  and  N_11
REMARK    4  A    between atoms: C_7  and  O_9
REMARK    5  A    between atoms: O_9  and  C_10
REMARK    6  A    between atoms: N_11  and  S_12
REMARK    7  A    between atoms: S_12  and  C_15
REMARK    8  A    between atoms: C_18  and  N_21
REMARK                            x       y       z     vdW  Elec       q    Type
REMARK                         _______ _______ _______ _____ _____    ______ ____
ROOT
ATOM      1  S   UNL     1      -2.650   1.177   0.021  0.00  0.00    +0.000 S 
ATOM      2  O   UNL     1      -3.687   2.147   0.058  0.00  0.00    +0.000 OA
ATOM      3  O   UNL     1      -2.553   0.204  -1.010  0.00  0.00    +0.000 OA
ENDROOT
BRANCH   1   4
ATOM      4  C   UNL     1      -2.733   0.292   1.542  0.00  0.00    +0.000 A 
ATOM      5  C   UNL     1      -2.225  -0.992   1.622  0.00  0.00    +0.000 A 
ATOM      6  C   UNL     1      -2.284  -1.686   2.814  0.00  0.00    +0.000 A 
ATOM      7  C   UNL     1      -2.864  -1.098   3.931  0.00  0.00    +0.000 A 
ATOM      8  C   UNL     1      -3.378   0.189   3.846  0.00  0.00    +0.000 A 
ATOM      9  C   UNL     1      -3.312   0.880   2.652  0.00  0.00    +0.000 A 
BRANCH   7  10
ATOM     10  N   UNL     1      -2.930  -1.800   5.137  0.00  0.00    +0.000 N 
ATOM     11  H   UNL     1      -2.547  -2.754   5.198  0.00  0.00    +0.000 HD
ATOM     12  H   UNL     1      -3.360  -1.363   5.965  0.00  0.00    +0.000 HD
ENDBRANCH   7  10
ENDBRANCH   1   4
BRANCH   1  13
ATOM     13  N   UNL     1      -1.220   2.013   0.019  0.00  0.00    +0.000 NA
BRANCH  13  16
ATOM     14  C   UNL     1       2.373   1.289  -0.014  0.00  0.00    +0.000 A 
ATOM     15  C   UNL     1       1.192   2.020   0.002  0.00  0.00    +0.000 A 
ATOM     16  C   UNL     1      -0.016   1.327   0.009  0.00  0.00    +0.000 A 
ATOM     17  N   UNL     1       0.002  -0.004   0.002  0.00  0.00    +0.000 NA
ATOM     18  C   UNL     1       1.147  -0.665  -0.013  0.00  0.00    +0.000 A 
ATOM     19  N   UNL     1       2.313  -0.039  -0.020  0.00  0.00    +0.000 NA
BRANCH  14  21
ATOM     20  C   UNL     1       4.740   1.099  -0.036  0.00  0.00    +0.000 C 
ATOM     21  O   UNL     1       3.572   1.922  -0.021  0.00  0.00    +0.000 OA
ENDBRANCH  14  21
BRANCH  18  22
ATOM     22  O   UNL     1       1.127  -2.020  -0.019  0.00  0.00    +0.000 OA
ATOM     23  C   UNL     1       2.390  -2.688  -0.035  0.00  0.00    +0.000 C 
ENDBRANCH  18  22
ENDBRANCH  13  16
ENDBRANCH   1  13
TORSDOF 6
ENDMDL
MODEL      745
REMARK  Name = ZINC13551153
REMARK  2 active torsions:
REMARK  status: ('A' for Active; 'I' for Inactive)
REMARK    1  A    between atoms: C_1  and  C_2
REMARK    2  A    between atoms: C_4  and  O_22
REMARK                            x       y       z     vdW  Elec       q    Type
REMARK                         _______ _______ _______ _____ _____    ______ ____
ROOT
ATOM      1  C   UNL     1      -4.099   2.451   6.667  0.00  0.00    +0.000 C 
ATOM      2  C   UNL     1      -3.427   1.476   5.736  0.00  0.00    +0.000 A 
ATOM      3  C   UNL     1      -3.431   0.123   6.019  0.00  0.00    +0.000 A 
ATOM      4  C   UNL     1      -2.796  -0.745   5.131  0.00  0.00    +0.000 A 
ATOM      5  N   UNL     1      -2.213  -0.245   4.048  0.00  0.00    +0.000 NA
ATOM      6  C   UNL     1      -2.231   1.057   3.812  0.00  0.00    +0.000 A 
ATOM      7  N   UNL     1      -2.820   1.906   4.640  0.00  0.00    +0.000 NA
ATOM      8  N   UNL     1      -1.611   1.546   2.670  0.00  0.00    +0.000 N 
ATOM      9  C   UNL     1      -0.875   0.699   1.869  0.00  0.00    +0.000 C 
ATOM     10  N   UNL     1      -0.385   1.145   0.665  0.00  0.00    +0.000 N 
ATOM     11  C   UNL     1       0.477   0.288  -0.164  0.00  0.00    +0.000 C 
ATOM     12  C   UNL     1      -0.089   0.254  -1.587  0.00  0.00    +0.000 C 
ATOM     13  N   UNL     1      -0.254   1.629  -2.079  0.00  0.00    +0.000 N 
ATOM     14  C   UNL     1      -1.230   2.370  -1.270  0.00  0.00    +0.000 C 
ATOM     15  C   UNL     1      -0.711   2.491   0.167  0.00  0.00    +0.000 C 
ATOM     16  C   UNL     1      -0.609   1.639  -3.416  0.00  0.00    +0.000 A 
ATOM     17  N   UNL     1      -0.745   0.487  -4.058  0.00  0.00    +0.000 NA
ATOM     18  C   UNL     1      -1.088   0.461  -5.335  0.00  0.00    +0.000 A 
ATOM     19  C   UNL     1      -1.296   1.657  -6.004  0.00  0.00    +0.000 A 
ATOM     20  C   UNL     1      -1.140   2.843  -5.304  0.00  0.00    +0.000 A 
ATOM     21  N   UNL     1      -0.800   2.799  -4.026  0.00  0.00    +0.000 NA
ATOM     22  N   UNL     1      -0.610  -0.555   2.200  0.00  0.00    +0.000 N 
ATOM     23  H   UNL     1      -1.701   2.541   2.421  0.00  0.00    +0.000 HD
ATOM     24  H   UNL     1      -0.974  -0.904   3.099  0.00  0.00    +0.000 HD
ATOM     25  H   UNL     1      -0.057  -1.170   1.585  0.00  0.00    +0.000 HD
ENDROOT
BRANCH   4  26
ATOM     26  O   UNL     1      -2.776  -2.078   5.370  0.00  0.00    +0.000 OA
ATOM     27  H   UNL     1      -3.728  -2.332   5.459  0.00  0.00    +0.000 HD
ENDBRANCH   4  26
TORSDOF 1
ENDMDL
MODEL      746
REMARK  Name = ZINC18043372
REMARK  3 active torsions:
REMARK  status: ('A' for Active; 'I' for Inactive)
REMARK    1  A    between atoms: N_3  and  N_4
REMARK    2  A    between atoms: C_9  and  C_11
REMARK    3  A    between atoms: C_11  and  C_12
REMARK                            x       y       z     vdW  Elec       q    Type
REMARK                         _______ _______ _______ _____ _____    ______ ____
ROOT
ATOM      1  N   UNL     1      -3.300   3.618   0.053  0.00  0.00    +0.000 N 
ATOM      2  C   UNL     1      -4.386   4.440   0.068  0.00  0.00    +0.000 A 
ATOM      3  N   UNL     1      -4.409   5.768   0.081  0.00  0.00    +0.000 NA
ATOM      4  C   UNL     1      -5.498   6.484   0.090  0.00  0.00    +0.000 A 
ATOM      5  O   UNL     1      -5.477   7.700   0.097  0.00  0.00    +0.000 OA
ATOM      6  C   UNL     1      -6.800   5.693   0.098  0.00  0.00    +0.000 A 
ATOM      7  S   UNL     1      -6.115   3.987   0.082  0.00  0.00    +0.000 S 
ATOM      8  H   UNL     1      -3.429   2.595   0.049  0.00  0.00    +0.000 HD
ENDROOT
BRANCH   1  11
ATOM      9  C   UNL     1       0.448   3.907   0.019  0.00  0.00    +0.000 C 
ATOM     10  C   UNL     1      -0.978   3.380   0.030  0.00  0.00    +0.000 C 
ATOM     11  N   UNL     1      -2.009   4.161   0.044  0.00  0.00    +0.000 NA
ATOM     12  N   UNL     1      -1.087   2.022   0.017  0.00  0.00    +0.000 N 
ATOM     13  C   UNL     1      -0.014   1.212   0.009  0.00  0.00    +0.000 C 
ATOM     14  O   UNL     1       0.002  -0.004   0.002  0.00  0.00    +0.000 OA
ATOM     15  S   UNL     1       1.381   2.326   0.001  0.00  0.00    +0.000 S 
ATOM     16  H   UNL     1      -2.027   1.600   0.015  0.00  0.00    +0.000 HD
ENDBRANCH   1  11
BRANCH   6  17
ATOM     17  C   UNL     1      -7.633   5.972  -1.155  0.00  0.00    +0.000 C 
BRANCH  17  18
ATOM     18  C   UNL     1      -8.865   5.105  -1.142  0.00  0.00    +0.000 C 
ATOM     19  O   UNL     1      -9.059   4.339  -0.222  0.00  0.00    +0.000 OA
ATOM     20  N   UNL     1      -9.753   5.181  -2.154  0.00  0.00    +0.000 N 
ATOM     21  C   UNL     1     -10.855   4.405  -2.143  0.00  0.00    +0.000 C 
ATOM     22  O   UNL     1     -11.049   3.637  -1.221  0.00  0.00    +0.000 OA
ATOM     23  N   UNL     1     -11.742   4.481  -3.154  0.00  0.00    +0.000 N 
ATOM     24  H   UNL     1      -9.589   5.831  -2.935  0.00  0.00    +0.000 HD
ATOM     25  H   UNL     1     -11.578   5.131  -3.936  0.00  0.00    +0.000 HD
ATOM     26  H   UNL     1     -12.585   3.888  -3.146  0.00  0.00    +0.000 HD
ENDBRANCH  17  18
ENDBRANCH   6  17
TORSDOF 3
ENDMDL
MODEL      747
REMARK  Name = ZINC27362798
REMARK  8 active torsions:
REMARK  status: ('A' for Active; 'I' for Inactive)
REMARK    1  A    between atoms: C_1  and  N_2
REMARK    2  A    between atoms: N_2  and  C_3
REMARK    3  A    between atoms: C_6  and  C_11
REMARK    4  A    between atoms: C_11  and  N_12
REMARK    5  A    between atoms: N_15  and  C_18
REMARK    6  A    between atoms: C_18  and  C_19
REMARK    7  A    between atoms: N_21  and  C_22
REMARK    8  A    between atoms: N_21  and  C_23
REMARK                            x       y       z     vdW  Elec       q    Type
REMARK                         _______ _______ _______ _____ _____    ______ ____
ROOT
ATOM      1  C   UNL     1      -0.018   1.503   0.010  0.00  0.00    +0.000 C 
ENDROOT
BRANCH   1   7
ATOM      2  C   UNL     1       0.034  -4.133  -2.370  0.00  0.00    +0.000 C 
ATOM      3  N   UNL     1       0.015  -2.669  -2.359  0.00  0.00    +0.000 N 
ATOM      4  C   UNL     1      -0.007  -1.927  -3.622  0.00  0.00    +0.000 C 
ATOM      5  C   UNL     1       0.017  -1.988  -1.158  0.00  0.00    +0.000 A 
ATOM      6  N   UNL     1      -0.005  -0.657  -1.147  0.00  0.00    +0.000 NA
ATOM      7  C   UNL     1       0.002  -0.004   0.002  0.00  0.00    +0.000 A 
ATOM      8  N   UNL     1       0.022  -0.669   1.144  0.00  0.00    +0.000 NA
ATOM      9  C   UNL     1       0.040  -2.000   1.141  0.00  0.00    +0.000 A 
ATOM     10  N   UNL     1       0.037  -2.660  -0.013  0.00  0.00    +0.000 NA
ATOM     11  N   UNL     1       0.061  -2.694   2.333  0.00  0.00    +0.000 N 
ATOM     12  H   UNL     1       0.063  -2.181   3.227  0.00  0.00    +0.000 HD
ATOM     13  H   UNL     1       0.074  -3.724   2.331  0.00  0.00    +0.000 HD
ENDBRANCH   1   7
BRANCH   1  14
ATOM     14  N   UNL     1       1.360   2.011  -0.000  0.00  0.00    +0.000 NA
ATOM     15  C   UNL     1       2.058   1.667   1.247  0.00  0.00    +0.000 C 
ATOM     16  C   UNL     1       3.510   2.144   1.164  0.00  0.00    +0.000 C 
ATOM     17  N   UNL     1       3.534   3.595   0.933  0.00  0.00    +0.000 NA
ATOM     18  C   UNL     1       2.836   3.939  -0.314  0.00  0.00    +0.000 C 
ATOM     19  C   UNL     1       1.384   3.462  -0.231  0.00  0.00    +0.000 C 
BRANCH  17  20
ATOM     20  C   UNL     1       4.912   4.104   0.923  0.00  0.00    +0.000 C 
BRANCH  20  21
ATOM     21  C   UNL     1       5.514   3.952   2.296  0.00  0.00    +0.000 C 
ATOM     22  O   UNL     1       4.859   3.468   3.195  0.00  0.00    +0.000 OA
ATOM     23  N   UNL     1       6.779   4.354   2.525  0.00  0.00    +0.000 N 
ATOM     24  C   UNL     1       7.364   4.207   3.860  0.00  0.00    +0.000 C 
ATOM     25  C   UNL     1       7.570   4.939   1.439  0.00  0.00    +0.000 C 
ENDBRANCH  20  21
ENDBRANCH  17  20
ENDBRANCH   1  14
TORSDOF 4
ENDMDL
MODEL      748
REMARK  Name = ZINC28539280
REMARK  6 active torsions:
REMARK  status: ('A' for Active; 'I' for Inactive)
REMARK    1  A    between atoms: C_3  and  N_23
REMARK    2  A    between atoms: N_7  and  C_10
REMARK    3  A    between atoms: C_11  and  N_20
REMARK    4  A    between atoms: C_12  and  N_17
REMARK    5  A    between atoms: C_13  and  C_15
REMARK    6  A    between atoms: C_15  and  O_16
REMARK                            x       y       z     vdW  Elec       q    Type
REMARK                         _______ _______ _______ _____ _____    ______ ____
ROOT
ATOM      1  C   UNL     1       0.974   3.380   0.137  0.00  0.00    +0.000 C 
ATOM      2  C   UNL     1       1.246   1.869   0.000  0.00  0.00    +0.000 C 
ATOM      3  C   UNL     1       1.949   1.733  -1.372  0.00  0.00    +0.000 C 
ATOM      4  C   UNL     1       1.522   3.040  -2.087  0.00  0.00    +0.000 C 
ATOM      5  O   UNL     1       1.524   4.020  -1.027  0.00  0.00    +0.000 OA
ENDROOT
BRANCH   1  12
ATOM      6  C   UNL     1      -0.230   3.572   4.456  0.00  0.00    +0.000 A 
ATOM      7  N   UNL     1       0.653   4.127   5.267  0.00  0.00    +0.000 NA
ATOM      8  C   UNL     1       1.812   4.589   4.809  0.00  0.00    +0.000 A 
ATOM      9  C   UNL     1       2.082   4.476   3.435  0.00  0.00    +0.000 A 
ATOM     10  C   UNL     1       1.111   3.878   2.615  0.00  0.00    +0.000 A 
ATOM     11  N   UNL     1      -0.020   3.445   3.163  0.00  0.00    +0.000 NA
ATOM     12  N   UNL     1       1.626   3.896   1.343  0.00  0.00    +0.000 N 
ATOM     13  C   UNL     1       2.857   4.477   1.409  0.00  0.00    +0.000 A 
ATOM     14  N   UNL     1       3.120   4.822   2.636  0.00  0.00    +0.000 NA
BRANCH   8  15
ATOM     15  N   UNL     1       2.731   5.169   5.666  0.00  0.00    +0.000 N 
ATOM     16  H   UNL     1       2.511   5.242   6.670  0.00  0.00    +0.000 HD
ATOM     17  H   UNL     1       3.627   5.526   5.305  0.00  0.00    +0.000 HD
ENDBRANCH   8  15
ENDBRANCH   1  12
BRANCH   3  18
ATOM     18  N   UNL     1       3.404   1.676  -1.210  0.00  0.00    +0.000 NA
ATOM     19  N   UNL     1       4.062   1.493  -2.103  0.00  0.00    +0.000 NA
ATOM     20  N   UNL     1       4.720   1.309  -2.996  0.00  0.00    +0.000 NA
ENDBRANCH   3  18
BRANCH   2  21
ATOM     21  N   UNL     1      -0.013   1.120   0.008  0.00  0.00    +0.000 NA
ATOM     22  N   UNL     1       0.002  -0.004   0.002  0.00  0.00    +0.000 NA
ATOM     23  N   UNL     1       0.017  -1.128  -0.004  0.00  0.00    +0.000 NA
ENDBRANCH   2  21
BRANCH   4  24
ATOM     24  C   UNL     1       2.532   3.418  -3.173  0.00  0.00    +0.000 C 
BRANCH  24  25
ATOM     25  O   UNL     1       2.105   4.617  -3.823  0.00  0.00    +0.000 OA
ATOM     26  H   UNL     1       2.045   5.350  -3.160  0.00  0.00    +0.000 HD
ENDBRANCH  24  25
ENDBRANCH   4  24
TORSDOF 6
ENDMDL
MODEL      749
REMARK  Name = ZINC17327003
REMARK  9 active torsions:
REMARK  status: ('A' for Active; 'I' for Inactive)
REMARK    1  A    between atoms: C_6  and  N_10
REMARK    2  A    between atoms: N_10  and  C_11
REMARK    3  A    between atoms: C_12  and  O_22
REMARK    4  A    between atoms: C_13  and  O_21
REMARK    5  A    between atoms: C_14  and  N_23
REMARK    6  A    between atoms: C_15  and  C_17
REMARK    7  A    between atoms: C_17  and  C_18
REMARK    8  A    between atoms: C_17  and  O_20
REMARK    9  A    between atoms: C_18  and  O_19
REMARK                            x       y       z     vdW  Elec       q    Type
REMARK                         _______ _______ _______ _____ _____    ______ ____
ROOT
ATOM      1  C   UNL     1       3.640   2.978  -0.018  0.00  0.00    +0.000 C 
ATOM      2  C   UNL     1       4.694   3.726   0.803  0.00  0.00    +0.000 C 
ATOM      3  C   UNL     1       4.959   5.090   0.157  0.00  0.00    +0.000 C 
ATOM      4  C   UNL     1       5.397   4.877  -1.296  0.00  0.00    +0.000 C 
ATOM      5  C   UNL     1       4.316   4.084  -2.035  0.00  0.00    +0.000 C 
ATOM      6  O   UNL     1       4.097   2.841  -1.365  0.00  0.00    +0.000 OA
ENDROOT
BRANCH   4   7
ATOM      7  N   UNL     1       5.559   6.190  -1.945  0.00  0.00    +0.000 N 
ATOM      8  H   UNL     1       6.276   6.737  -1.448  0.00  0.00    +0.000 HD
ATOM      9  H   UNL     1       4.664   6.699  -1.929  0.00  0.00    +0.000 HD
ATOM     10  H   UNL     1       5.853   6.052  -2.922  0.00  0.00    +0.000 HD
ENDBRANCH   4   7
BRANCH   2  11
ATOM     11  O   UNL     1       4.215   3.915   2.136  0.00  0.00    +0.000 OA
ATOM     12  H   UNL     1       4.038   3.034   2.552  0.00  0.00    +0.000 HD
ENDBRANCH   2  11
BRANCH   1  13
ATOM     13  N   UNL     1       2.383   3.729  -0.002  0.00  0.00    +0.000 N 
ATOM     14  H   UNL     1       2.396   4.756  -0.086  0.00  0.00    +0.000 HD
BRANCH  13  20
ATOM     15  C   UNL     1      -1.676   5.184   0.129  0.00  0.00    +0.000 A 
ATOM     16  N   UNL     1      -2.244   3.952   0.264  0.00  0.00    +0.000 N 
ATOM     17  C   UNL     1      -1.228   3.030   0.277  0.00  0.00    +0.000 A 
ATOM     18  C   UNL     1      -0.037   3.765   0.144  0.00  0.00    +0.000 A 
ATOM     19  N   UNL     1      -0.382   5.072   0.059  0.00  0.00    +0.000 NA
ATOM     20  C   UNL     1       1.179   3.060   0.127  0.00  0.00    +0.000 A 
ATOM     21  N   UNL     1       1.145   1.736   0.237  0.00  0.00    +0.000 NA
ATOM     22  C   UNL     1      -0.000   1.089   0.360  0.00  0.00    +0.000 A 
ATOM     23  N   UNL     1      -1.163   1.707   0.376  0.00  0.00    +0.000 NA
ATOM     24  H   UNL     1      -3.251   3.750   0.342  0.00  0.00    +0.000 HD
ENDBRANCH  13  20
ENDBRANCH   1  13
BRANCH   3  25
ATOM     25  O   UNL     1       3.764   5.873   0.186  0.00  0.00    +0.000 OA
ATOM     26  H   UNL     1       3.478   6.004   1.125  0.00  0.00    +0.000 HD
ENDBRANCH   3  25
BRANCH   5  27
ATOM     27  C   UNL     1       4.773   3.815  -3.471  0.00  0.00    +0.000 C 
BRANCH  27  28
ATOM     28  O   UNL     1       6.046   3.166  -3.452  0.00  0.00    +0.000 OA
ATOM     29  H   UNL     1       5.972   2.308  -2.964  0.00  0.00    +0.000 HD
ENDBRANCH  27  28
BRANCH  27  30
ATOM     30  C   UNL     1       3.752   2.917  -4.171  0.00  0.00    +0.000 C 
BRANCH  30  31
ATOM     31  O   UNL     1       4.117   2.761  -5.544  0.00  0.00    +0.000 OA
ATOM     32  H   UNL     1       5.014   2.348  -5.603  0.00  0.00    +0.000 HD
ENDBRANCH  30  31
ENDBRANCH  27  30
ENDBRANCH   5  27
TORSDOF 9
ENDMDL
MODEL      750
REMARK  Name = ZINC05686596
REMARK  7 active torsions:
REMARK  status: ('A' for Active; 'I' for Inactive)
REMARK    1  A    between atoms: C_1  and  C_2
REMARK    2  A    between atoms: C_2  and  CA_3
REMARK    3  A    between atoms: CA_3  and  C_4
REMARK    4  A    between atoms: CA_3  and  N_23
REMARK    5  A    between atoms: C_6  and  C_7
REMARK    6  A    between atoms: C_6  and  N_23
REMARK    7  A    between atoms: C_15  and  O_18
REMARK                            x       y       z     vdW  Elec       q    Type
REMARK                         _______ _______ _______ _____ _____    ______ ____
ROOT
ATOM      1  C   UNL     1      -1.328   3.350   0.342  0.00  0.00    +0.000 A 
ATOM      2  C   UNL     1      -1.294   1.961   0.496  0.00  0.00    +0.000 A 
ATOM      3  O   UNL     1      -2.433   1.269   0.532  0.00  0.00    +0.000 OA
ATOM      4  C   UNL     1      -0.062   1.290   0.619  0.00  0.00    +0.000 A 
ATOM      5  C   UNL     1       1.105   1.984   0.577  0.00  0.00    +0.000 A 
ATOM      6  C   UNL     1       1.086   3.381   0.415  0.00  0.00    +0.000 A 
ATOM      7  C   UNL     1       2.286   4.118   0.367  0.00  0.00    +0.000 A 
ATOM      8  C   UNL     1       2.218   5.488   0.208  0.00  0.00    +0.000 A 
ATOM      9  C   UNL     1       0.979   6.106   0.100  0.00  0.00    +0.000 A 
ATOM     10  O   UNL     1      -0.158   5.405   0.146  0.00  0.00    +0.000 OA
ATOM     11  C   UNL     1      -0.147   4.064   0.299  0.00  0.00    +0.000 A 
ATOM     12  C   UNL     1       3.616   6.067   0.184  0.00  0.00    +0.000 C 
ATOM     13  C   UNL     1       4.547   4.868  -0.091  0.00  0.00    +0.000 C 
ATOM     14  C   UNL     1       3.729   3.680   0.461  0.00  0.00    +0.000 C 
ENDROOT
BRANCH   9  15
ATOM     15  O   UNL     1       0.922   7.443  -0.054  0.00  0.00    +0.000 OA
ATOM     16  H   UNL     1       1.461   7.635  -0.863  0.00  0.00    +0.000 HD
ENDBRANCH   9  15
BRANCH   1  17
ATOM     17  C   UNL     1      -2.649   4.065   0.218  0.00  0.00    +0.000 C 
BRANCH  17  18
ATOM     18  N   UNL     1      -3.028   4.137  -1.206  0.00  0.00    +0.000 N 
ATOM     19  H1  UNL     1      -2.344   4.718  -1.712  0.00  0.00    +0.000 HD
ATOM     20  H2  UNL     1      -3.026   3.188  -1.608  0.00  0.00    +0.000 HD
BRANCH  18  21
ATOM     21  CA  UNL     1      -4.373   4.726  -1.349  0.00  0.00    +0.000 C 
BRANCH  21  22
ATOM     22  C   UNL     1      -4.509   5.319  -2.728  0.00  0.00    +0.000 C 
ATOM     23  O   UNL     1      -3.585   5.259  -3.505  0.00  0.00    +0.000 OA
ATOM     24  OXT UNL     1      -5.656   5.912  -3.094  0.00  0.00    +0.000 OA
ENDBRANCH  21  22
BRANCH  21  26
ATOM     25  C   UNL     1      -5.234   2.542  -2.206  0.00  0.00    +0.000 C 
ATOM     26  C   UNL     1      -5.431   3.637  -1.156  0.00  0.00    +0.000 C 
ENDBRANCH  21  26
ENDBRANCH  18  21
ENDBRANCH  17  18
ENDBRANCH   1  17
TORSDOF 6
ENDMDL
MODEL      751
REMARK  Name = ZINC23697636
REMARK  10 active torsions:
REMARK  status: ('A' for Active; 'I' for Inactive)
REMARK    1  A    between atoms: C_1  and  C_2
REMARK    2  A    between atoms: C_2  and  C_3
REMARK    3  A    between atoms: C_3  and  C_19
REMARK    4  A    between atoms: N_6  and  N_10
REMARK    5  A    between atoms: C_11  and  C_13
REMARK    6  A    between atoms: C_13  and  N_14
REMARK    7  A    between atoms: N_14  and  C_15
REMARK    8  A    between atoms: C_15  and  C_16
REMARK    9  A    between atoms: C_15  and  C_17
REMARK   10  A    between atoms: C_15  and  C_18
REMARK                            x       y       z     vdW  Elec       q    Type
REMARK                         _______ _______ _______ _____ _____    ______ ____
ROOT
ATOM      1  N   UNL     1       0.304   4.637   2.974  0.00  0.00    +0.000 N 
ATOM      2  C   UNL     1       1.556   5.127   2.870  0.00  0.00    +0.000 C 
ATOM      3  O   UNL     1       2.432   4.452   2.372  0.00  0.00    +0.000 OA
ATOM      4  H   UNL     1      -0.440   5.210   3.397  0.00  0.00    +0.000 HD
ENDROOT
BRANCH   1   8
ATOM      5  C   UNL     1      -0.729   1.579   1.267  0.00  0.00    +0.000 C 
ATOM      6  C   UNL     1      -0.654   3.090   1.365  0.00  0.00    +0.000 C 
ATOM      7  O   UNL     1      -1.103   3.898   0.580  0.00  0.00    +0.000 OA
ATOM      8  N   UNL     1       0.015   3.349   2.506  0.00  0.00    +0.000 N 
ATOM      9  C   UNL     1       0.371   2.223   3.135  0.00  0.00    +0.000 C 
ATOM     10  O   UNL     1       0.984   2.200   4.184  0.00  0.00    +0.000 OA
ATOM     11  N   UNL     1      -0.026   1.119   2.477  0.00  0.00    +0.000 NA
ATOM     12  C   UNL     1      -0.013   1.086   0.008  0.00  0.00    +0.000 C 
BRANCH   5  14
ATOM     13  C   UNL     1      -2.224  -0.420   1.358  0.00  0.00    +0.000 C 
ATOM     14  C   UNL     1      -2.184   1.107   1.276  0.00  0.00    +0.000 C 
ENDBRANCH   5  14
ENDBRANCH   1   8
BRANCH   2  15
ATOM     15  C   UNL     1       1.867   6.512   3.374  0.00  0.00    +0.000 C 
BRANCH  15  16
ATOM     16  N   UNL     1       3.288   6.808   3.148  0.00  0.00    +0.000 N 
ATOM     17  H   UNL     1       3.492   6.746   2.140  0.00  0.00    +0.000 HD
ATOM     18  H   UNL     1       3.863   6.115   3.647  0.00  0.00    +0.000 HD
BRANCH  16  19
ATOM     19  C   UNL     1       3.628   8.155   3.627  0.00  0.00    +0.000 C 
ATOM     20  C   UNL     1       3.340   8.249   5.127  0.00  0.00    +0.000 C 
ATOM     21  C   UNL     1       5.112   8.426   3.375  0.00  0.00    +0.000 C 
ATOM     22  C   UNL     1       2.786   9.190   2.880  0.00  0.00    +0.000 C 
ENDBRANCH  16  19
ENDBRANCH  15  16
ENDBRANCH   2  15
TORSDOF 5
ENDMDL
MODEL      752
REMARK  Name = ZINC05799862
REMARK  8 active torsions:
REMARK  status: ('A' for Active; 'I' for Inactive)
REMARK    1  A    between atoms: C_1  and  N_21
REMARK    2  A    between atoms: C_2  and  N_21
REMARK    3  A    between atoms: C_3  and  C_4
REMARK    4  A    between atoms: C_3  and  N_21
REMARK    5  A    between atoms: C_4  and  C_5
REMARK    6  A    between atoms: C_5  and  N_6
REMARK    7  A    between atoms: C_7  and  C_9
REMARK    8  A    between atoms: C_15  and  O_16
REMARK                            x       y       z     vdW  Elec       q    Type
REMARK                         _______ _______ _______ _____ _____    ______ ____
ROOT
ATOM      1  C   UNL     1       2.353   1.505  -0.012  0.00  0.00    +0.000 A 
ATOM      2  C   UNL     1       2.393   0.040  -0.023  0.00  0.00    +0.000 A 
ATOM      3  O   UNL     1       3.460  -0.553  -0.033  0.00  0.00    +0.000 OA
ATOM      4  C   UNL     1       1.162  -0.677  -0.021  0.00  0.00    +0.000 A 
ATOM      5  C   UNL     1       0.002  -0.004   0.002  0.00  0.00    +0.000 A 
ATOM      6  N   UNL     1      -0.017   1.365   0.009  0.00  0.00    +0.000 N 
ATOM      7  C   UNL     1       1.103   2.119   0.003  0.00  0.00    +0.000 A 
ATOM      8  C   UNL     1      -1.338  -0.699   0.029  0.00  0.00    +0.000 C 
ATOM      9  C   UNL     1      -1.205  -2.151  -0.421  0.00  0.00    +0.000 C 
ATOM     10  C   UNL     1      -0.079  -2.804   0.391  0.00  0.00    +0.000 C 
ATOM     11  C   UNL     1       1.244  -2.181  -0.047  0.00  0.00    +0.000 C 
ATOM     12  H   UNL     1      -0.929   1.842   0.021  0.00  0.00    +0.000 HD
ENDROOT
BRANCH   1  14
ATOM     13  N   UNL     1       4.167   2.653   1.147  0.00  0.00    +0.000 N 
ATOM     14  C   UNL     1       3.589   2.297  -0.018  0.00  0.00    +0.000 C 
ATOM     15  O   UNL     1       4.091   2.634  -1.073  0.00  0.00    +0.000 OA
ATOM     16  H   UNL     1       3.741   2.369   2.041  0.00  0.00    +0.000 HD
BRANCH  13  17
ATOM     17  C   UNL     1       5.399   3.444   1.142  0.00  0.00    +0.000 C 
BRANCH  17  18
ATOM     18  C   UNL     1       5.842   3.709   2.582  0.00  0.00    +0.000 C 
BRANCH  18  19
ATOM     19  C   UNL     1       7.129   4.535   2.577  0.00  0.00    +0.000 C 
BRANCH  19  22
ATOM     20  C   UNL     1       8.902   5.372   3.998  0.00  0.00    +0.000 C 
ATOM     21  C   UNL     1       6.589   5.651   4.657  0.00  0.00    +0.000 C 
ATOM     22  N   UNL     1       7.555   4.765   3.973  0.00  0.00    +0.000 N 
ATOM     23  H   UNL     1       7.586   3.861   4.466  0.00  0.00    +0.000 HD
ENDBRANCH  19  22
ENDBRANCH  18  19
ENDBRANCH  17  18
ENDBRANCH  13  17
ENDBRANCH   1  14
BRANCH   7  24
ATOM     24  O   UNL     1       1.011   3.464   0.010  0.00  0.00    +0.000 OA
ATOM     25  H   UNL     1       1.516   3.758  -0.789  0.00  0.00    +0.000 HD
ENDBRANCH   7  24
TORSDOF 6
ENDMDL
MODEL      753
REMARK  Name = ZINC06536724
REMARK  3 active torsions:
REMARK  status: ('A' for Active; 'I' for Inactive)
REMARK    1  A    between atoms: C_3  and  C_6
REMARK    2  A    between atoms: C_6  and  N_7
REMARK    3  A    between atoms: N_17  and  N_18
REMARK                            x       y       z     vdW  Elec       q    Type
REMARK                         _______ _______ _______ _____ _____    ______ ____
ROOT
ATOM      1  N   UNL     1      -1.861   4.798   1.426  0.00  0.00    +0.000 N 
ATOM      2  C   UNL     1      -2.625   5.880   1.685  0.00  0.00    +0.000 C 
ATOM      3  N   UNL     1      -3.135   6.604   0.709  0.00  0.00    +0.000 NA
ATOM      4  C   UNL     1      -3.801   7.747   0.907  0.00  0.00    +0.000 C 
ATOM      5  N   UNL     1      -3.734   8.417   2.060  0.00  0.00    +0.000 NA
ATOM      6  C   UNL     1      -3.149   7.804   3.077  0.00  0.00    +0.000 C 
ATOM      7  N   UNL     1      -2.475   8.256   4.101  0.00  0.00    +0.000 NA
ATOM      8  C   UNL     1      -1.685   7.309   4.619  0.00  0.00    +0.000 C 
ATOM      9  N   UNL     1      -1.839   6.143   4.055  0.00  0.00    +0.000 NA
ATOM     10  C   UNL     1      -2.916   6.304   3.091  0.00  0.00    +0.000 C 
ATOM     11  N   UNL     1      -4.573   8.249  -0.107  0.00  0.00    +0.000 N 
ATOM     12  H   UNL     1      -1.467   4.247   2.203  0.00  0.00    +0.000 HD
ATOM     13  H   UNL     1      -4.637   7.746  -1.003  0.00  0.00    +0.000 HD
ENDROOT
BRANCH  11  14
ATOM     14  N   UNL     1      -5.259   9.417   0.071  0.00  0.00    +0.000 NA
ATOM     15  H   UNL     1      -4.542  10.109   0.333  0.00  0.00    +0.000 HD
ATOM     16  H   UNL     1      -5.845   9.258   0.904  0.00  0.00    +0.000 HD
ENDBRANCH  11  14
BRANCH   1  17
ATOM     17  C   UNL     1      -1.592   4.406   0.040  0.00  0.00    +0.000 C 
BRANCH  17  20
ATOM     18  C   UNL     1      -0.013   1.076   0.008  0.00  0.00    +0.000 A 
ATOM     19  C   UNL     1      -1.159   1.903   0.017  0.00  0.00    +0.000 A 
ATOM     20  C   UNL     1      -0.722   3.175   0.026  0.00  0.00    +0.000 A 
ATOM     21  O   UNL     1       0.621   3.162   0.013  0.00  0.00    +0.000 OA
ATOM     22  C   UNL     1       1.057   1.892   0.002  0.00  0.00    +0.000 A 
ENDBRANCH  17  20
ENDBRANCH   1  17
TORSDOF 3
ENDMDL
MODEL      754
REMARK  Name = ZINC06223307
REMARK  5 active torsions:
REMARK  status: ('A' for Active; 'I' for Inactive)
REMARK    1  A    between atoms: N_3  and  C_6
REMARK    2  A    between atoms: C_6  and  C_7
REMARK    3  A    between atoms: C_7  and  C_8
REMARK    4  A    between atoms: C_8  and  N_9
REMARK    5  A    between atoms: C_10  and  C_11
REMARK                            x       y       z     vdW  Elec       q    Type
REMARK                         _______ _______ _______ _____ _____    ______ ____
ROOT
ATOM      1  N   UNL     1      -0.020   1.094   2.454  0.00  0.00    +0.000 NA
ATOM      2  C   UNL     1       0.553   1.937   3.257  0.00  0.00    +0.000 C 
ENDROOT
BRANCH   2   3
ATOM      3  C   UNL     1       1.263   1.451   4.445  0.00  0.00    +0.000 A 
ATOM      4  C   UNL     1       1.887   2.339   5.323  0.00  0.00    +0.000 A 
ATOM      5  N   UNL     1       2.536   1.843   6.417  0.00  0.00    +0.000 N 
ATOM      6  C   UNL     1       2.584   0.524   6.661  0.00  0.00    +0.000 A 
ATOM      7  O   UNL     1       3.175   0.131   7.649  0.00  0.00    +0.000 OA
ATOM      8  N   UNL     1       2.003  -0.377   5.852  0.00  0.00    +0.000 N 
ATOM      9  C   UNL     1       1.332   0.018   4.750  0.00  0.00    +0.000 A 
ATOM     10  O   UNL     1       0.800  -0.799   4.020  0.00  0.00    +0.000 OA
ATOM     11  O   UNL     1       1.849   3.665   5.093  0.00  0.00    +0.000 OA
ATOM     12  H   UNL     1       2.998   2.494   7.067  0.00  0.00    +0.000 HD
ATOM     13  H   UNL     1       2.069  -1.380   6.075  0.00  0.00    +0.000 HD
ENDBRANCH   2   3
BRANCH   1  14
ATOM     14  C   UNL     1      -0.729   1.579   1.267  0.00  0.00    +0.000 C 
BRANCH  14  15
ATOM     15  C   UNL     1      -0.013   1.086   0.008  0.00  0.00    +0.000 C 
BRANCH  15  16
ATOM     16  C   UNL     1      -0.753   1.593  -1.232  0.00  0.00    +0.000 C 
BRANCH  16  19
ATOM     17  C   UNL     1       0.506  -0.115  -4.133  0.00  0.00    +0.000 A 
ATOM     18  C   UNL     1      -0.323  -0.032  -3.075  0.00  0.00    +0.000 A 
ATOM     19  N   UNL     1      -0.067   1.120  -2.437  0.00  0.00    +0.000 N 
ATOM     20  C   UNL     1       0.885   1.756  -3.063  0.00  0.00    +0.000 A 
ATOM     21  N   UNL     1       1.274   1.018  -4.124  0.00  0.00    +0.000 N 
ATOM     22  H   UNL     1       2.012   1.261  -4.801  0.00  0.00    +0.000 HD
ENDBRANCH  16  19
ENDBRANCH  15  16
ENDBRANCH  14  15
ENDBRANCH   1  14
TORSDOF 5
ENDMDL
MODEL      755
REMARK  Name = ZINC01643171
REMARK  5 active torsions:
REMARK  status: ('A' for Active; 'I' for Inactive)
REMARK    1  A    between atoms: C_1  and  N_2
REMARK    2  A    between atoms: N_2  and  N_7
REMARK    3  A    between atoms: C_8  and  C_9
REMARK    4  A    between atoms: N_10  and  N_11
REMARK    5  A    between atoms: N_11  and  C_12
REMARK                            x       y       z     vdW  Elec       q    Type
REMARK                         _______ _______ _______ _____ _____    ______ ____
ROOT
ATOM      1  N   UNL     1      -2.630   2.842  -2.869  0.00  0.00    +0.000 NA
ATOM      2  C   UNL     1      -3.498   3.425  -3.644  0.00  0.00    +0.000 C 
ENDROOT
BRANCH   1   4
ATOM      3  C   UNL     1      -3.879   3.680  -0.895  0.00  0.00    +0.000 C 
ATOM      4  N   UNL     1      -2.763   2.931  -1.477  0.00  0.00    +0.000 N 
ATOM      5  C   UNL     1      -1.845   2.315  -0.657  0.00  0.00    +0.000 C 
ATOM      6  C   UNL     1      -0.794   1.612   1.228  0.00  0.00    +0.000 C 
ATOM      7  C   UNL     1      -0.013   1.086   0.008  0.00  0.00    +0.000 C 
ATOM      8  N   UNL     1      -0.781   1.601  -1.138  0.00  0.00    +0.000 N 
ATOM      9  N   UNL     1      -1.917   2.364   0.635  0.00  0.00    +0.000 N 
ATOM     10  H   UNL     1      -0.555   1.450  -2.131  0.00  0.00    +0.000 HD
ATOM     11  H   UNL     1      -2.649   2.853   1.169  0.00  0.00    +0.000 HD
ENDBRANCH   1   4
BRANCH   2  12
ATOM     12  C   UNL     1      -3.359   3.331  -5.097  0.00  0.00    +0.000 C 
ATOM     13  N   UNL     1      -4.227   3.914  -5.873  0.00  0.00    +0.000 NA
BRANCH  13  14
ATOM     14  N   UNL     1      -4.093   3.825  -7.264  0.00  0.00    +0.000 N 
ATOM     15  C   UNL     1      -2.977   3.076  -7.847  0.00  0.00    +0.000 C 
ATOM     16  C   UNL     1      -5.011   4.441  -8.085  0.00  0.00    +0.000 C 
ATOM     17  C   UNL     1      -6.059   5.144  -9.968  0.00  0.00    +0.000 C 
ATOM     18  C   UNL     1      -6.844   5.670  -8.750  0.00  0.00    +0.000 C 
ATOM     19  N   UNL     1      -6.076   5.155  -7.604  0.00  0.00    +0.000 N 
ATOM     20  N   UNL     1      -4.936   4.397  -9.377  0.00  0.00    +0.000 N 
ATOM     21  H   UNL     1      -6.301   5.306  -6.611  0.00  0.00    +0.000 HD
ATOM     22  H   UNL     1      -4.201   3.912  -9.912  0.00  0.00    +0.000 HD
ENDBRANCH  13  14
ENDBRANCH   2  12
TORSDOF 3
ENDMDL
MODEL      756
REMARK  Name = ZINC16698041
REMARK  6 active torsions:
REMARK  status: ('A' for Active; 'I' for Inactive)
REMARK    1  A    between atoms: C_7  and  C_10
REMARK    2  A    between atoms: C_10  and  C_12
REMARK    3  A    between atoms: C_12  and  C_13
REMARK    4  A    between atoms: C_12  and  N_18
REMARK    5  A    between atoms: C_13  and  C_14
REMARK    6  A    between atoms: C_14  and  C_15
REMARK                            x       y       z     vdW  Elec       q    Type
REMARK                         _______ _______ _______ _____ _____    ______ ____
ROOT
ATOM      1  C   UNL     1       3.562   0.535  -0.029  0.00  0.00    +0.000 C 
ATOM      2  O   UNL     1       4.216   1.557  -0.029  0.00  0.00    +0.000 OA
ENDROOT
BRANCH   1   9
ATOM      3  C   UNL     1       0.564   4.094   0.018  0.00  0.00    +0.000 A 
ATOM      4  C   UNL     1      -0.752   3.658   0.028  0.00  0.00    +0.000 A 
ATOM      5  C   UNL     1      -1.046   2.312   0.030  0.00  0.00    +0.000 A 
ATOM      6  C   UNL     1      -0.017   1.376   0.010  0.00  0.00    +0.000 A 
ATOM      7  C   UNL     1       1.315   1.820  -0.001  0.00  0.00    +0.000 A 
ATOM      8  C   UNL     1       1.598   3.183   0.004  0.00  0.00    +0.000 A 
ATOM      9  C   UNL     1       2.146   0.600  -0.015  0.00  0.00    +0.000 A 
ATOM     10  C   UNL     1       1.268  -0.463  -0.013  0.00  0.00    +0.000 A 
ATOM     11  N   UNL     1       0.002  -0.004   0.002  0.00  0.00    +0.000 N 
ATOM     12  H   UNL     1      -0.837  -0.601   0.007  0.00  0.00    +0.000 HD
ENDBRANCH   1   9
BRANCH   1  13
ATOM     13  C   UNL     1       4.254  -0.804  -0.043  0.00  0.00    +0.000 C 
BRANCH  13  14
ATOM     14  N   UNL     1       5.635  -0.633   0.442  0.00  0.00    +0.000 N 
ATOM     15  H   UNL     1       5.624  -0.264   1.404  0.00  0.00    +0.000 HD
ATOM     16  H   UNL     1       6.142   0.020  -0.172  0.00  0.00    +0.000 HD
ATOM     17  H   UNL     1       6.113  -1.545   0.435  0.00  0.00    +0.000 HD
ENDBRANCH  13  14
BRANCH  13  18
ATOM     18  C   UNL     1       4.253  -1.364  -1.466  0.00  0.00    +0.000 C 
BRANCH  18  19
ATOM     19  C   UNL     1       4.843  -2.775  -1.460  0.00  0.00    +0.000 C 
BRANCH  19  20
ATOM     20  C   UNL     1       4.842  -3.327  -2.862  0.00  0.00    +0.000 C 
ATOM     21  O   UNL     1       4.413  -2.660  -3.773  0.00  0.00    +0.000 OA
ATOM     22  O   UNL     1       5.318  -4.560  -3.099  0.00  0.00    +0.000 OA
ENDBRANCH  19  20
ENDBRANCH  18  19
ENDBRANCH  13  18
ENDBRANCH   1  13
TORSDOF 6
ENDMDL
MODEL      757
REMARK  Name = ZINC06785841
REMARK  5 active torsions:
REMARK  status: ('A' for Active; 'I' for Inactive)
REMARK    1  A    between atoms: C_1  and  N_2
REMARK    2  A    between atoms: C_5  and  C_6
REMARK    3  A    between atoms: N_7  and  C_8
REMARK    4  A    between atoms: C_8  and  C_9
REMARK    5  A    between atoms: C_9  and  N_19
REMARK                            x       y       z     vdW  Elec       q    Type
REMARK                         _______ _______ _______ _____ _____    ______ ____
ROOT
ATOM      1  C   UNL     1       1.003   1.678  -7.314  0.00  0.00    +0.000 C 
ATOM      2  N   UNL     1       1.657   1.485  -6.151  0.00  0.00    +0.000 N 
ATOM      3  H   UNL     1       2.651   1.214  -6.158  0.00  0.00    +0.000 HD
ENDROOT
BRANCH   1   8
ATOM      4  C   UNL     1       1.137   1.974 -12.225  0.00  0.00    +0.000 C 
ATOM      5  N   UNL     1       1.741   1.655 -10.928  0.00  0.00    +0.000 N 
ATOM      6  C   UNL     1       1.026   1.845  -9.799  0.00  0.00    +0.000 A 
ATOM      7  O   UNL     1      -0.112   2.276  -9.841  0.00  0.00    +0.000 OA
ATOM      8  C   UNL     1       1.666   1.513  -8.515  0.00  0.00    +0.000 A 
ATOM      9  C   UNL     1       3.051   1.002  -8.569  0.00  0.00    +0.000 A 
ATOM     10  O   UNL     1       3.649   0.711  -7.547  0.00  0.00    +0.000 OA
ATOM     11  N   UNL     1       3.634   0.861  -9.769  0.00  0.00    +0.000 NA
ATOM     12  C   UNL     1       3.014   1.173 -10.884  0.00  0.00    +0.000 A 
ATOM     13  S   UNL     1       3.876   0.957 -12.405  0.00  0.00    +0.000 SA
ENDBRANCH   1   8
BRANCH   2  14
ATOM     14  C   UNL     1       0.955   1.659  -4.877  0.00  0.00    +0.000 C 
BRANCH  14  15
ATOM     15  C   UNL     1       1.918   1.382  -3.721  0.00  0.00    +0.000 C 
BRANCH  15  20
ATOM     16  C   UNL     1       2.029   1.073  -1.322  0.00  0.00    +0.000 C 
ATOM     17  C   UNL     1       1.296   1.345  -0.006  0.00  0.00    +0.000 C 
ATOM     18  C   UNL     1      -0.828   1.159  -1.153  0.00  0.00    +0.000 C 
ATOM     19  C   UNL     1      -0.094   0.887  -2.468  0.00  0.00    +0.000 C 
ATOM     20  N   UNL     1       1.209   1.584  -2.440  0.00  0.00    +0.000 NA
ATOM     21  N   UNL     1      -0.015   0.669  -0.024  0.00  0.00    +0.000 N 
ATOM     22  H   UNL     1      -0.509   0.857   0.860  0.00  0.00    +0.000 HD
ATOM     23  H   UNL     1       0.126  -0.347  -0.121  0.00  0.00    +0.000 HD
ENDBRANCH  15  20
ENDBRANCH  14  15
ENDBRANCH   2  14
TORSDOF 4
ENDMDL
MODEL      758
REMARK  Name = ZINC20286016
REMARK  8 active torsions:
REMARK  status: ('A' for Active; 'I' for Inactive)
REMARK    1  A    between atoms: C_1  and  C_2
REMARK    2  A    between atoms: C_2  and  N_3
REMARK    3  A    between atoms: N_3  and  C_4
REMARK    4  A    between atoms: N_3  and  S_6
REMARK    5  A    between atoms: C_4  and  C_5
REMARK    6  A    between atoms: S_6  and  C_9
REMARK    7  A    between atoms: C_16  and  N_18
REMARK    8  A    between atoms: N_18  and  N_19
REMARK                            x       y       z     vdW  Elec       q    Type
REMARK                         _______ _______ _______ _____ _____    ______ ____
ROOT
ATOM      1  C   UNL     1      -1.726   7.135  -2.328  0.00  0.00    +0.000 A 
ATOM      2  C   UNL     1      -0.954   7.361  -1.199  0.00  0.00    +0.000 A 
ATOM      3  C   UNL     1      -0.440   6.301  -0.479  0.00  0.00    +0.000 A 
ATOM      4  C   UNL     1      -0.696   5.002  -0.885  0.00  0.00    +0.000 A 
ATOM      5  C   UNL     1      -1.476   4.769  -2.027  0.00  0.00    +0.000 A 
ATOM      6  C   UNL     1      -1.990   5.850  -2.746  0.00  0.00    +0.000 A 
ATOM      7  N   UNL     1      -1.555   3.418  -2.177  0.00  0.00    +0.000 NA
ATOM      8  C   UNL     1      -0.881   2.849  -1.211  0.00  0.00    +0.000 A 
ATOM      9  O   UNL     1      -0.350   3.785  -0.405  0.00  0.00    +0.000 OA
ENDROOT
BRANCH   1  10
ATOM     10  S   UNL     1      -2.373   8.501  -3.234  0.00  0.00    +0.000 S 
ATOM     11  O   UNL     1      -1.531   9.611  -2.952  0.00  0.00    +0.000 OA
ATOM     12  O   UNL     1      -2.605   8.038  -4.557  0.00  0.00    +0.000 OA
BRANCH  10  13
ATOM     13  N   UNL     1      -3.856   8.857  -2.590  0.00  0.00    +0.000 NA
BRANCH  13  14
ATOM     14  C   UNL     1      -5.059   8.213  -3.123  0.00  0.00    +0.000 C 
ATOM     15  C   UNL     1      -5.395   6.982  -2.279  0.00  0.00    +0.000 C 
ENDBRANCH  13  14
BRANCH  13  17
ATOM     16  C   UNL     1      -4.282  11.204  -2.049  0.00  0.00    +0.000 C 
ATOM     17  C   UNL     1      -3.965   9.816  -1.488  0.00  0.00    +0.000 C 
ENDBRANCH  13  17
ENDBRANCH  10  13
ENDBRANCH   1  10
BRANCH   8  18
ATOM     18  N   UNL     1      -0.741   1.490  -1.041  0.00  0.00    +0.000 NA
BRANCH  18  19
ATOM     19  N   UNL     1      -0.012   1.005   0.008  0.00  0.00    +0.000 N 
ATOM     20  H   UNL     1      -0.448   1.414   0.846  0.00  0.00    +0.000 HD
ATOM     21  H   UNL     1       0.918   1.437  -0.092  0.00  0.00    +0.000 HD
ATOM     22  H   UNL     1       0.037  -0.023   0.052  0.00  0.00    +0.000 HD
ENDBRANCH  18  19
ENDBRANCH   8  18
TORSDOF 6
ENDMDL
MODEL      759
REMARK  Name = ZINC04226596
REMARK  8 active torsions:
REMARK  status: ('A' for Active; 'I' for Inactive)
REMARK    1  A    between atoms: C_1  and  C_2
REMARK    2  A    between atoms: C_2  and  CA_3
REMARK    3  A    between atoms: CA_3  and  C_4
REMARK    4  A    between atoms: CA_3  and  N_6
REMARK    5  A    between atoms: C_4  and  O_5
REMARK    6  A    between atoms: N_6  and  C_7
REMARK    7  A    between atoms: C_9  and  C_18
REMARK    8  A    between atoms: C_15  and  C_16
REMARK                            x       y       z     vdW  Elec       q    Type
REMARK                         _______ _______ _______ _____ _____    ______ ____
ROOT
ATOM      1  C   UNL     1      -1.266   2.076   0.031  0.00  0.00    +0.000 A 
ATOM      2  C   UNL     1      -2.416   1.300   0.035  0.00  0.00    +0.000 A 
ATOM      3  C   UNL     1      -2.310  -0.083   0.026  0.00  0.00    +0.000 A 
ATOM      4  C   UNL     1       0.002  -0.004   0.002  0.00  0.00    +0.000 A 
ATOM      5  C   UNL     1      -0.017   1.410   0.010  0.00  0.00    +0.000 A 
ATOM      6  C   UNL     1       1.188   2.125   0.002  0.00  0.00    +0.000 A 
ATOM      7  C   UNL     1       2.380   1.459  -0.014  0.00  0.00    +0.000 A 
ATOM      8  C   UNL     1       2.424   0.073  -0.021  0.00  0.00    +0.000 A 
ATOM      9  C   UNL     1       1.253  -0.674  -0.014  0.00  0.00    +0.000 A 
ATOM     10  C   UNL     1      -3.566  -0.914   0.035  0.00  0.00    +0.000 C 
ATOM     11  N   UNL     1      -1.141  -0.768   0.010  0.00  0.00    +0.000 N 
ATOM     12  H   UNL     1      -1.110  -1.797   0.004  0.00  0.00    +0.000 HD
ENDROOT
BRANCH   9  13
ATOM     13  C   UNL     1       1.308  -2.145  -0.023  0.00  0.00    +0.000 C 
ATOM     14  O   UNL     1       0.280  -2.792  -0.017  0.00  0.00    +0.000 OA
ATOM     15  O   UNL     1       2.500  -2.774  -0.038  0.00  0.00    +0.000 OA
ENDBRANCH   9  13
BRANCH   1  16
ATOM     16  N   UNL     1      -1.339   3.460   0.040  0.00  0.00    +0.000 N 
ATOM     17  H   UNL     1      -0.475   4.021   0.030  0.00  0.00    +0.000 HD
BRANCH  16  18
ATOM     18  CA  UNL     1      -2.644   4.125   0.062  0.00  0.00    +0.000 C 
BRANCH  18  20
ATOM     19  C   UNL     1      -3.384   2.837   2.070  0.00  0.00    +0.000 C 
ATOM     20  C   UNL     1      -3.135   4.237   1.507  0.00  0.00    +0.000 C 
ENDBRANCH  18  20
BRANCH  18  21
ATOM     21  C   UNL     1      -2.513   5.524  -0.542  0.00  0.00    +0.000 C 
BRANCH  21  22
ATOM     22  O   UNL     1      -1.667   6.324   0.286  0.00  0.00    +0.000 OA
ATOM     23  H   UNL     1      -0.772   5.906   0.346  0.00  0.00    +0.000 HD
ENDBRANCH  21  22
ENDBRANCH  18  21
ENDBRANCH  16  18
ENDBRANCH   1  16
TORSDOF 6
ENDMDL
MODEL      760
REMARK  Name = ZINC05763436
REMARK  4 active torsions:
REMARK  status: ('A' for Active; 'I' for Inactive)
REMARK    1  A    between atoms: C_3  and  C_16
REMARK    2  A    between atoms: C_6  and  C_7
REMARK    3  A    between atoms: C_7  and  N_8
REMARK    4  A    between atoms: N_8  and  C_9
REMARK                            x       y       z     vdW  Elec       q    Type
REMARK                         _______ _______ _______ _____ _____    ______ ____
ROOT
ATOM      1  N   UNL     1      -0.011   0.966   0.007  0.00  0.00    +0.000 NA
ATOM      2  H   UNL     1      -0.005   0.340  -0.810  0.00  0.00    +0.000 HD
ATOM      3  H   UNL     1       0.006   0.338   0.824  0.00  0.00    +0.000 HD
ENDROOT
BRANCH   1   4
ATOM      4  C   UNL     1       1.192   1.683  -0.000  0.00  0.00    +0.000 C 
ATOM      5  C   UNL     1       2.353   1.030  -0.009  0.00  0.00    +0.000 C 
ATOM      6  N   UNL     1       3.559   1.764  -0.022  0.00  0.00    +0.000 N 
ATOM      7  N   UNL     1       3.508   3.165  -0.014  0.00  0.00    +0.000 N 
ATOM      8  C   UNL     1       2.314   3.790   0.000  0.00  0.00    +0.000 C 
ATOM      9  O   UNL     1       2.270   5.005   0.007  0.00  0.00    +0.000 OA
ATOM     10  N   UNL     1       1.170   3.082   0.007  0.00  0.00    +0.000 N 
ATOM     11  H   UNL     1       4.466   1.275  -0.038  0.00  0.00    +0.000 HD
ATOM     12  H   UNL     1       4.379   3.715  -0.020  0.00  0.00    +0.000 HD
ATOM     13  H   UNL     1       0.267   3.576   0.019  0.00  0.00    +0.000 HD
ENDBRANCH   1   4
BRANCH   1  14
ATOM     14  C   UNL     1      -1.290   1.681   0.017  0.00  0.00    +0.000 C 
BRANCH  14  20
ATOM     15  C   UNL     1      -2.949   0.242  -1.183  0.00  0.00    +0.000 A 
ATOM     16  C   UNL     1      -3.982  -0.672  -1.190  0.00  0.00    +0.000 A 
ATOM     17  C   UNL     1      -4.503  -1.141   0.017  0.00  0.00    +0.000 A 
ATOM     18  C   UNL     1      -3.970  -0.685   1.225  0.00  0.00    +0.000 A 
ATOM     19  C   UNL     1      -2.933   0.225   1.217  0.00  0.00    +0.000 A 
ATOM     20  C   UNL     1      -2.422   0.686   0.017  0.00  0.00    +0.000 A 
BRANCH  17  21
ATOM     21  C   UNL     1      -5.612  -2.116   0.017  0.00  0.00    +0.000 C 
ATOM     22  O   UNL     1      -6.063  -2.523   1.069  0.00  0.00    +0.000 OA
ATOM     23  O   UNL     1      -6.124  -2.554  -1.149  0.00  0.00    +0.000 OA
ENDBRANCH  17  21
ENDBRANCH  14  20
ENDBRANCH   1  14
TORSDOF 4
ENDMDL
MODEL      761
REMARK  Name = ZINC19751959
REMARK  9 active torsions:
REMARK  status: ('A' for Active; 'I' for Inactive)
REMARK    1  A    between atoms: C_1  and  C_2
REMARK    2  A    between atoms: C_2  and  C_3
REMARK    3  A    between atoms: C_2  and  N_6
REMARK    4  A    between atoms: C_9  and  O_19
REMARK    5  A    between atoms: C_10  and  O_17
REMARK    6  A    between atoms: C_14  and  C_15
REMARK    7  A    between atoms: C_15  and  N_16
REMARK    8  A    between atoms: O_17  and  C_18
REMARK    9  A    between atoms: O_19  and  C_20
REMARK                            x       y       z     vdW  Elec       q    Type
REMARK                         _______ _______ _______ _____ _____    ______ ____
ROOT
ATOM      1  N   UNL     1       3.473  -0.840   0.006  0.00  0.00    +0.000 N 
ATOM      2  C   UNL     1       2.405   0.037   0.004  0.00  0.00    +0.000 A 
ATOM      3  C   UNL     1       2.295   1.421  -0.007  0.00  0.00    +0.000 A 
ATOM      4  C   UNL     1       1.047   2.012  -0.006  0.00  0.00    +0.000 A 
ATOM      5  C   UNL     1      -0.106   1.224   0.006  0.00  0.00    +0.000 A 
ATOM      6  C   UNL     1      -0.010  -0.152   0.017  0.00  0.00    +0.000 A 
ATOM      7  C   UNL     1       1.249  -0.760   0.016  0.00  0.00    +0.000 A 
ATOM      8  N   UNL     1       1.661  -2.055   0.025  0.00  0.00    +0.000 NA
ATOM      9  C   UNL     1       2.961  -2.101   0.019  0.00  0.00    +0.000 A 
ENDROOT
BRANCH   4  10
ATOM     10  O   UNL     1       0.939   3.368  -0.016  0.00  0.00    +0.000 OA
ATOM     11  C   UNL     1       2.157   4.115  -0.029  0.00  0.00    +0.000 C 
ENDBRANCH   4  10
BRANCH   1  13
ATOM     12  C   UNL     1       5.202   0.410   1.203  0.00  0.00    +0.000 C 
ATOM     13  C   UNL     1       4.893  -0.480  -0.003  0.00  0.00    +0.000 C 
BRANCH  13  14
ATOM     14  C   UNL     1       5.214   0.266  -1.273  0.00  0.00    +0.000 C 
ATOM     15  O   UNL     1       4.346   0.474  -2.087  0.00  0.00    +0.000 OA
ATOM     16  O   UNL     1       6.464   0.698  -1.500  0.00  0.00    +0.000 OA
ENDBRANCH  13  14
ENDBRANCH   1  13
BRANCH   5  17
ATOM     17  O   UNL     1      -1.331   1.816   0.002  0.00  0.00    +0.000 OA
ATOM     18  C   UNL     1      -2.469   0.953   0.009  0.00  0.00    +0.000 C 
ENDBRANCH   5  17
BRANCH   9  19
ATOM     19  C   UNL     1       3.780  -3.366   0.026  0.00  0.00    +0.000 C 
BRANCH  19  20
ATOM     20  N   UNL     1       3.967  -3.821   1.410  0.00  0.00    +0.000 N 
ATOM     21  H   UNL     1       3.049  -4.006   1.839  0.00  0.00    +0.000 HD
ATOM     22  H   UNL     1       4.457  -3.093   1.949  0.00  0.00    +0.000 HD
ATOM     23  H   UNL     1       4.527  -4.686   1.415  0.00  0.00    +0.000 HD
ENDBRANCH  19  20
ENDBRANCH   9  19
TORSDOF 6
ENDMDL
MODEL      762
REMARK  Name = ZINC01771393
REMARK  8 active torsions:
REMARK  status: ('A' for Active; 'I' for Inactive)
REMARK    1  A    between atoms: C_1  and  N_14
REMARK    2  A    between atoms: C_2  and  N_14
REMARK    3  A    between atoms: C_3  and  C_4
REMARK    4  A    between atoms: C_3  and  N_14
REMARK    5  A    between atoms: C_4  and  C_5
REMARK    6  A    between atoms: C_5  and  N_15
REMARK    7  A    between atoms: C_6  and  N_15
REMARK    8  A    between atoms: C_12  and  O_13
REMARK                            x       y       z     vdW  Elec       q    Type
REMARK                         _______ _______ _______ _____ _____    ______ ____
ROOT
ATOM      1  C   UNL     1      -0.745   3.467   1.261  0.00  0.00    +0.000 C 
ATOM      2  C   UNL     1      -1.983   3.951   0.480  0.00  0.00    +0.000 C 
ATOM      3  S   UNL     1      -2.857   5.022   1.697  0.00  0.00    +0.000 S 
ATOM      4  O   UNL     1      -3.185   6.259   1.079  0.00  0.00    +0.000 OA
ATOM      5  O   UNL     1      -3.872   4.265   2.341  0.00  0.00    +0.000 OA
ATOM      6  C   UNL     1      -1.456   5.284   2.872  0.00  0.00    +0.000 C 
ATOM      7  C   UNL     1      -0.734   3.916   2.722  0.00  0.00    +0.000 C 
ENDROOT
BRANCH   1   8
ATOM      8  N   UNL     1      -0.711   1.993   1.226  0.00  0.00    +0.000 N 
ATOM      9  H   UNL     1      -1.674   1.629   1.232  0.00  0.00    +0.000 HD
ATOM     10  H   UNL     1      -0.213   1.645   2.058  0.00  0.00    +0.000 HD
BRANCH   8  11
ATOM     11  C   UNL     1      -0.019   1.526   0.010  0.00  0.00    +0.000 C 
BRANCH  11  12
ATOM     12  C   UNL     1       0.002  -0.004   0.002  0.00  0.00    +0.000 C 
BRANCH  12  13
ATOM     13  C   UNL     1       0.718  -0.497  -1.257  0.00  0.00    +0.000 C 
BRANCH  13  16
ATOM     14  C   UNL     1      -0.620  -2.510  -1.399  0.00  0.00    +0.000 C 
ATOM     15  C   UNL     1       1.617  -2.475  -2.327  0.00  0.00    +0.000 C 
ATOM     16  N   UNL     1       0.749  -1.975  -1.240  0.00  0.00    +0.000 NA
ENDBRANCH  13  16
ENDBRANCH  12  13
ENDBRANCH  11  12
ENDBRANCH   8  11
ENDBRANCH   1   8
BRANCH   7  17
ATOM     17  O   UNL     1       0.619   4.044   3.166  0.00  0.00    +0.000 OA
ATOM     18  H   UNL     1       1.088   4.717   2.612  0.00  0.00    +0.000 HD
ENDBRANCH   7  17
TORSDOF 6
ENDMDL
MODEL      763
REMARK  Name = ZINC05827989
REMARK  7 active torsions:
REMARK  status: ('A' for Active; 'I' for Inactive)
REMARK    1  A    between atoms: C_2  and  C_3
REMARK    2  A    between atoms: C_3  and  N_20
REMARK    3  A    between atoms: C_4  and  C_5
REMARK    4  A    between atoms: C_4  and  N_20
REMARK    5  A    between atoms: N_7  and  C_13
REMARK    6  A    between atoms: C_16  and  C_18
REMARK    7  A    between atoms: C_18  and  O_19
REMARK                            x       y       z     vdW  Elec       q    Type
REMARK                         _______ _______ _______ _____ _____    ______ ____
ROOT
ATOM      1  C   UNL     1      -0.280   3.576  -0.392  0.00  0.00    +0.000 A 
ATOM      2  C   UNL     1       0.923   2.963  -0.395  0.00  0.00    +0.000 A 
ATOM      3  N   UNL     1       1.013   1.644  -0.043  0.00  0.00    +0.000 N 
ATOM      4  C   UNL     1      -0.087   0.952   0.308  0.00  0.00    +0.000 A 
ATOM      5  O   UNL     1       0.015  -0.219   0.618  0.00  0.00    +0.000 OA
ATOM      6  N   UNL     1      -1.299   1.537   0.315  0.00  0.00    +0.000 N 
ATOM      7  C   UNL     1      -1.429   2.836  -0.021  0.00  0.00    +0.000 A 
ATOM      8  O   UNL     1      -2.525   3.367  -0.011  0.00  0.00    +0.000 OA
ATOM      9  H   UNL     1      -2.131   0.990   0.578  0.00  0.00    +0.000 HD
ENDROOT
BRANCH   3  10
ATOM     10  C   UNL     1       2.318   0.979  -0.046  0.00  0.00    +0.000 C 
ATOM     11  C   UNL     1       3.388   1.926   0.448  0.00  0.00    +0.000 C 
ATOM     12  C   UNL     1       3.664   1.623   1.695  0.00  0.00    +0.000 C 
ATOM     13  C   UNL     1       2.795   0.457   2.106  0.00  0.00    +0.000 C 
ATOM     14  O   UNL     1       2.316  -0.127   0.877  0.00  0.00    +0.000 OA
BRANCH  13  15
ATOM     15  C   UNL     1       1.618   0.947   2.953  0.00  0.00    +0.000 C 
BRANCH  15  16
ATOM     16  O   UNL     1       0.868  -0.175   3.420  0.00  0.00    +0.000 OA
ATOM     17  H   UNL     1       1.450  -0.757   3.971  0.00  0.00    +0.000 HD
ENDBRANCH  15  16
ENDBRANCH  13  15
ENDBRANCH   3  10
BRANCH   1  18
ATOM     18  C   UNL     1      -0.398   5.028  -0.777  0.00  0.00    +0.000 C 
BRANCH  18  19
ATOM     19  N   UNL     1      -0.747   5.121  -2.208  0.00  0.00    +0.000 N 
ATOM     20  H   UNL     1      -1.643   4.639  -2.372  0.00  0.00    +0.000 HD
ATOM     21  H   UNL     1      -0.012   4.666  -2.768  0.00  0.00    +0.000 HD
BRANCH  19  22
ATOM     22  C   UNL     1      -0.870   6.534  -2.614  0.00  0.00    +0.000 C 
BRANCH  22  24
ATOM     23  C   UNL     1      -1.496   6.646  -5.182  0.00  0.00    +0.000 C 
ATOM     24  C   UNL     1      -1.218   6.596  -4.043  0.00  0.00    +0.000 C 
ENDBRANCH  22  24
ENDBRANCH  19  22
ENDBRANCH  18  19
ENDBRANCH   1  18
TORSDOF 7
ENDMDL
MODEL      764
REMARK  Name = ZINC12324045
REMARK  6 active torsions:
REMARK  status: ('A' for Active; 'I' for Inactive)
REMARK    1  A    between atoms: C_2  and  C_19
REMARK    2  A    between atoms: C_3  and  N_6
REMARK    3  A    between atoms: C_7  and  C_9
REMARK    4  A    between atoms: N_11  and  C_12
REMARK    5  A    between atoms: C_12  and  C_13
REMARK    6  A    between atoms: C_13  and  N_21
REMARK                            x       y       z     vdW  Elec       q    Type
REMARK                         _______ _______ _______ _____ _____    ______ ____
ROOT
ATOM      1  C   UNL     1      -2.527  -2.690   0.465  0.00  0.00    +0.000 C 
ATOM      2  O   UNL     1      -3.569  -2.098   0.661  0.00  0.00    +0.000 OA
ATOM      3  N   UNL     1      -1.389  -2.000   0.255  0.00  0.00    +0.000 N 
ATOM      4  H   UNL     1      -0.505  -2.502   0.089  0.00  0.00    +0.000 HD
ENDROOT
BRANCH   1   6
ATOM      5  N   UNL     1      -3.645  -4.874   0.667  0.00  0.00    +0.000 N 
ATOM      6  C   UNL     1      -2.507  -4.183   0.457  0.00  0.00    +0.000 C 
ATOM      7  O   UNL     1      -1.466  -4.775   0.261  0.00  0.00    +0.000 OA
ATOM      8  H   UNL     1      -4.529  -4.371   0.833  0.00  0.00    +0.000 HD
BRANCH   5  11
ATOM      9  C   UNL     1      -4.236  -8.426   0.767  0.00  0.00    +0.000 A 
ATOM     10  C   UNL     1      -4.715  -7.100   0.865  0.00  0.00    +0.000 A 
ATOM     11  C   UNL     1      -3.627  -6.258   0.659  0.00  0.00    +0.000 A 
ATOM     12  N   UNL     1      -2.548  -7.044   0.456  0.00  0.00    +0.000 N 
ATOM     13  N   UNL     1      -2.955  -8.380   0.528  0.00  0.00    +0.000 NA
ATOM     14  H   UNL     1      -1.589  -6.715   0.279  0.00  0.00    +0.000 HD
BRANCH  10  15
ATOM     15  C   UNL     1      -6.065  -6.699   1.124  0.00  0.00    +0.000 C 
ATOM     16  N   UNL     1      -7.136  -6.381   1.329  0.00  0.00    +0.000 NA
ENDBRANCH  10  15
ENDBRANCH   5  11
ENDBRANCH   1   6
BRANCH   3  17
ATOM     17  C   UNL     1      -1.409  -0.535   0.263  0.00  0.00    +0.000 C 
BRANCH  17  18
ATOM     18  C   UNL     1       0.002  -0.004   0.002  0.00  0.00    +0.000 C 
BRANCH  18  24
ATOM     19  C   UNL     1      -0.806   1.987  -1.113  0.00  0.00    +0.000 C 
ATOM     20  C   UNL     1      -0.927   3.507  -0.991  0.00  0.00    +0.000 C 
ATOM     21  C   UNL     1       0.473   4.127  -0.995  0.00  0.00    +0.000 C 
ATOM     22  C   UNL     1       1.290   3.531   0.155  0.00  0.00    +0.000 C 
ATOM     23  C   UNL     1       1.346   2.010   0.000  0.00  0.00    +0.000 C 
ATOM     24  N   UNL     1      -0.031   1.473   0.036  0.00  0.00    +0.000 N 
ATOM     25  H   UNL     1      -0.486   1.778   0.908  0.00  0.00    +0.000 HD
ENDBRANCH  18  24
ENDBRANCH  17  18
ENDBRANCH   3  17
TORSDOF 6
ENDMDL
MODEL      765
REMARK  Name = ZINC04806136
REMARK  8 active torsions:
REMARK  status: ('A' for Active; 'I' for Inactive)
REMARK    1  A    between atoms: C_1  and  C_2
REMARK    2  A    between atoms: C_2  and  C_3
REMARK    3  A    between atoms: C_2  and  S_4
REMARK    4  A    between atoms: S_4  and  C_6
REMARK    5  A    between atoms: C_6  and  C_7
REMARK    6  A    between atoms: C_7  and  CA_8
REMARK    7  A    between atoms: CA_8  and  C_9
REMARK    8  A    between atoms: CA_8  and  N_12
REMARK                            x       y       z     vdW  Elec       q    Type
REMARK                         _______ _______ _______ _____ _____    ______ ____
ROOT
ATOM      1  CA  UNL     1      -1.329   1.940   0.019  0.00  0.00    +0.000 C 
ENDROOT
BRANCH   1   2
ATOM      2  N   UNL     1      -2.381   1.034   0.515  0.00  0.00    +0.000 N 
ATOM      3  H1  UNL     1      -2.449   0.221  -0.113  0.00  0.00    +0.000 HD
ATOM      4  H2  UNL     1      -3.281   1.535   0.522  0.00  0.00    +0.000 HD
ATOM      5  H3  UNL     1      -2.151   0.719   1.469  0.00  0.00    +0.000 HD
ENDBRANCH   1   2
BRANCH   1   6
ATOM      6  C   UNL     1      -0.014   1.204   0.009  0.00  0.00    +0.000 C 
ATOM      7  O   UNL     1       0.002  -0.004   0.002  0.00  0.00    +0.000 OA
ATOM      8  OXT UNL     1       1.139   1.891   0.001  0.00  0.00    +0.000 OA
ENDBRANCH   1   6
BRANCH   1   9
ATOM      9  C   UNL     1      -1.659   2.415  -1.398  0.00  0.00    +0.000 C 
BRANCH   9  10
ATOM     10  C   UNL     1      -2.929   3.268  -1.367  0.00  0.00    +0.000 C 
BRANCH  10  11
ATOM     11  S   UNL     1      -3.320   3.831  -3.046  0.00  0.00    +0.000 S 
ATOM     12  O   UNL     1      -2.272   4.666  -3.521  0.00  0.00    +0.000 OA
BRANCH  11  14
ATOM     13  C   UNL     1      -4.588   5.907  -1.795  0.00  0.00    +0.000 C 
ATOM     14  C   UNL     1      -4.830   4.814  -2.839  0.00  0.00    +0.000 C 
ATOM     15  C   UNL     1      -5.206   5.460  -4.174  0.00  0.00    +0.000 C 
ENDBRANCH  11  14
ENDBRANCH  10  11
ENDBRANCH   9  10
ENDBRANCH   1   9
TORSDOF 6
ENDMDL
MODEL      766
REMARK  Name = ZINC20203443
REMARK  7 active torsions:
REMARK  status: ('A' for Active; 'I' for Inactive)
REMARK    1  A    between atoms: C_1  and  S_2
REMARK    2  A    between atoms: S_2  and  N_5
REMARK    3  A    between atoms: N_5  and  C_6
REMARK    4  A    between atoms: C_6  and  C_7
REMARK    5  A    between atoms: C_7  and  N_8
REMARK    6  A    between atoms: N_8  and  C_9
REMARK    7  A    between atoms: C_16  and  O_18
REMARK                            x       y       z     vdW  Elec       q    Type
REMARK                         _______ _______ _______ _____ _____    ______ ____
ROOT
ATOM      1  N   UNL     1       1.398   3.459   0.007  0.00  0.00    +0.000 N 
ATOM      2  H   UNL     1       0.907   3.789   0.851  0.00  0.00    +0.000 HD
ATOM      3  H   UNL     1       0.891   3.797  -0.824  0.00  0.00    +0.000 HD
ENDROOT
BRANCH   1   4
ATOM      4  C   UNL     1       2.762   4.004  -0.003  0.00  0.00    +0.000 C 
ATOM      5  C   UNL     1       3.266   4.260   1.437  0.00  0.00    +0.000 C 
ATOM      6  O   UNL     1       2.909   5.634   1.661  0.00  0.00    +0.000 OA
ATOM      7  C   UNL     1       2.880   6.291   0.469  0.00  0.00    +0.000 A 
ATOM      8  C   UNL     1       2.783   5.401  -0.594  0.00  0.00    +0.000 A 
ATOM      9  C   UNL     1       2.726   5.855  -1.893  0.00  0.00    +0.000 A 
ATOM     10  C   UNL     1       2.772   7.212  -2.155  0.00  0.00    +0.000 A 
ATOM     11  C   UNL     1       2.875   8.112  -1.105  0.00  0.00    +0.000 A 
ATOM     12  C   UNL     1       2.929   7.656   0.202  0.00  0.00    +0.000 A 
BRANCH  11  13
ATOM     13  O   UNL     1       2.923   9.446  -1.358  0.00  0.00    +0.000 OA
ATOM     14  H   UNL     1       2.103   9.637  -1.880  0.00  0.00    +0.000 HD
ENDBRANCH  11  13
ENDBRANCH   1   4
BRANCH   1  15
ATOM     15  C   UNL     1       1.418   1.990  -0.001  0.00  0.00    +0.000 C 
BRANCH  15  16
ATOM     16  C   UNL     1      -0.018   1.461   0.010  0.00  0.00    +0.000 C 
BRANCH  16  17
ATOM     17  N   UNL     1       0.002  -0.004   0.002  0.00  0.00    +0.000 NA
ATOM     18  H   UNL     1       0.868  -0.506  -0.240  0.00  0.00    +0.000 HD
BRANCH  17  20
ATOM     19  C   UNL     1      -2.545  -0.453  -0.939  0.00  0.00    +0.000 C 
ATOM     20  S   UNL     1      -1.368  -0.853   0.382  0.00  0.00    +0.000 S 
ATOM     21  O   UNL     1      -0.984  -2.218   0.298  0.00  0.00    +0.000 OA
ATOM     22  O   UNL     1      -1.808  -0.298   1.614  0.00  0.00    +0.000 OA
ENDBRANCH  17  20
ENDBRANCH  16  17
ENDBRANCH  15  16
ENDBRANCH   1  15
TORSDOF 6
ENDMDL
MODEL      767
REMARK  Name = ZINC07417784
REMARK  7 active torsions:
REMARK  status: ('A' for Active; 'I' for Inactive)
REMARK    1  A    between atoms: C_6  and  S_14
REMARK    2  A    between atoms: N_9  and  C_11
REMARK    3  A    between atoms: C_11  and  C_12
REMARK    4  A    between atoms: C_12  and  O_13
REMARK    5  A    between atoms: S_14  and  C_15
REMARK    6  A    between atoms: C_15  and  C_16
REMARK    7  A    between atoms: C_16  and  O_17
REMARK                            x       y       z     vdW  Elec       q    Type
REMARK                         _______ _______ _______ _____ _____    ______ ____
ROOT
ATOM      1  C   UNL     1      -0.017   1.406   0.010  0.00  0.00    +0.000 A 
ATOM      2  C   UNL     1       0.002  -0.004   0.002  0.00  0.00    +0.000 A 
ATOM      3  C   UNL     1      -1.001  -1.006   0.006  0.00  0.00    +0.000 A 
ATOM      4  O   UNL     1      -2.182  -0.707   0.019  0.00  0.00    +0.000 OA
ATOM      5  N   UNL     1      -0.614  -2.300  -0.005  0.00  0.00    +0.000 N 
ATOM      6  C   UNL     1       0.713  -2.622  -0.020  0.00  0.00    +0.000 A 
ATOM      7  N   UNL     1       1.654  -1.704  -0.024  0.00  0.00    +0.000 NA
ATOM      8  C   UNL     1       1.350  -0.400  -0.013  0.00  0.00    +0.000 A 
ATOM      9  N   UNL     1       2.090   0.741  -0.014  0.00  0.00    +0.000 N 
ATOM     10  N   UNL     1       1.214   1.833   0.000  0.00  0.00    +0.000 NA
ATOM     11  H   UNL     1      -1.322  -3.048  -0.003  0.00  0.00    +0.000 HD
ENDROOT
BRANCH   9  12
ATOM     12  C   UNL     1       3.553   0.814  -0.028  0.00  0.00    +0.000 C 
BRANCH  12  13
ATOM     13  C   UNL     1       4.049   0.848  -1.475  0.00  0.00    +0.000 C 
BRANCH  13  14
ATOM     14  O   UNL     1       5.476   0.919  -1.488  0.00  0.00    +0.000 OA
ATOM     15  H   UNL     1       5.851   0.126  -1.029  0.00  0.00    +0.000 HD
ENDBRANCH  13  14
ENDBRANCH  12  13
ENDBRANCH   9  12
BRANCH   6  16
ATOM     16  S   UNL     1       1.178  -4.322  -0.034  0.00  0.00    +0.000 S 
BRANCH  16  17
ATOM     17  C   UNL     1       2.981  -4.154  -0.050  0.00  0.00    +0.000 C 
BRANCH  17  18
ATOM     18  C   UNL     1       3.622  -5.543  -0.064  0.00  0.00    +0.000 C 
BRANCH  18  19
ATOM     19  O   UNL     1       5.045  -5.410  -0.076  0.00  0.00    +0.000 OA
ATOM     20  H   UNL     1       5.339  -4.920   0.732  0.00  0.00    +0.000 HD
ENDBRANCH  18  19
ENDBRANCH  17  18
ENDBRANCH  16  17
ENDBRANCH   6  16
TORSDOF 7
ENDMDL
MODEL      768
REMARK  Name = ZINC04992018
REMARK  7 active torsions:
REMARK  status: ('A' for Active; 'I' for Inactive)
REMARK    1  A    between atoms: C_1  and  O_2
REMARK    2  A    between atoms: O_2  and  C_3
REMARK    3  A    between atoms: C_6  and  C_11
REMARK    4  A    between atoms: C_8  and  O_9
REMARK    5  A    between atoms: O_9  and  C_10
REMARK    6  A    between atoms: N_12  and  N_13
REMARK    7  A    between atoms: N_18  and  N_19
REMARK                            x       y       z     vdW  Elec       q    Type
REMARK                         _______ _______ _______ _____ _____    ______ ____
ROOT
ATOM      1  C   UNL     1       1.352   6.683   0.023  0.00  0.00    +0.000 C 
ATOM      2  N   UNL     1       0.661   5.583   0.024  0.00  0.00    +0.000 NA
ENDROOT
BRANCH   2   3
ATOM      3  N   UNL     1       1.316   4.345   0.012  0.00  0.00    +0.000 N 
ATOM      4  C   UNL     1       0.579   3.172   0.013  0.00  0.00    +0.000 A 
ATOM      5  N   UNL     1      -0.730   3.072   0.024  0.00  0.00    +0.000 NA
ATOM      6  N   UNL     1      -1.073   1.834   0.016  0.00  0.00    +0.000 NA
ATOM      7  C   UNL     1      -0.013   1.076   0.008  0.00  0.00    +0.000 A 
ATOM      8  N   UNL     1       1.077   1.900   0.002  0.00  0.00    +0.000 N 
ATOM      9  H   UNL     1       2.345   4.306   0.003  0.00  0.00    +0.000 HD
BRANCH   8  10
ATOM     10  N   UNL     1       2.392   1.530  -0.012  0.00  0.00    +0.000 N 
ATOM     11  H   UNL     1       3.063   2.311  -0.014  0.00  0.00    +0.000 HD
ATOM     12  H   UNL     1       2.708   0.549  -0.019  0.00  0.00    +0.000 HD
ENDBRANCH   8  10
ENDBRANCH   2   3
BRANCH   1  16
ATOM     13  C   UNL     1      -0.639  10.436   0.060  0.00  0.00    +0.000 A 
ATOM     14  C   UNL     1      -1.376   9.260   0.060  0.00  0.00    +0.000 A 
ATOM     15  C   UNL     1      -0.733   8.040   0.043  0.00  0.00    +0.000 A 
ATOM     16  C   UNL     1       0.663   7.986   0.036  0.00  0.00    +0.000 A 
ATOM     17  C   UNL     1       1.404   9.170   0.035  0.00  0.00    +0.000 A 
ATOM     18  C   UNL     1       0.753  10.390   0.047  0.00  0.00    +0.000 A 
BRANCH  13  20
ATOM     19  C   UNL     1      -2.706  11.611   0.084  0.00  0.00    +0.000 C 
ATOM     20  O   UNL     1      -1.278  11.636   0.071  0.00  0.00    +0.000 OA
ENDBRANCH  13  20
BRANCH  18  21
ATOM     21  O   UNL     1       1.472  11.544   0.047  0.00  0.00    +0.000 OA
ATOM     22  C   UNL     1       2.895  11.422   0.034  0.00  0.00    +0.000 C 
ENDBRANCH  18  21
ENDBRANCH   1  16
TORSDOF 5
ENDMDL
MODEL      769
REMARK  Name = ZINC05425837
REMARK  6 active torsions:
REMARK  status: ('A' for Active; 'I' for Inactive)
REMARK    1  A    between atoms: C_6  and  C_7
REMARK    2  A    between atoms: C_6  and  N_19
REMARK    3  A    between atoms: C_7  and  N_8
REMARK    4  A    between atoms: C_10  and  N_16
REMARK    5  A    between atoms: N_16  and  O_17
REMARK    6  A    between atoms: N_16  and  O_18
REMARK                            x       y       z     vdW  Elec       q    Type
REMARK                         _______ _______ _______ _____ _____    ______ ____
ROOT
ATOM      1  N   UNL     1       4.081   2.060  -0.490  0.00  0.00    +0.000 NA
ATOM      2  C   UNL     1       4.226   1.043  -1.293  0.00  0.00    +0.000 C 
ATOM      3  C   UNL     1       3.915   1.108  -2.746  0.00  0.00    +0.000 C 
ATOM      4  C   UNL     1       4.501   0.186  -3.556  0.00  0.00    +0.000 C 
ATOM      5  N   UNL     1       5.309  -0.769  -3.108  0.00  0.00    +0.000 NA
ATOM      6  C   UNL     1       5.487  -1.056  -1.848  0.00  0.00    +0.000 C 
ATOM      7  C   UNL     1       4.723  -0.300  -0.831  0.00  0.00    +0.000 C 
ATOM      8  N   UNL     1       4.498  -0.761   0.370  0.00  0.00    +0.000 NA
ATOM      9  H   UNL     1       3.957  -0.172   1.018  0.00  0.00    +0.000 HD
ENDROOT
BRANCH   1  10
ATOM     10  C   UNL     1       4.171   3.425  -1.013  0.00  0.00    +0.000 C 
BRANCH  10  11
ATOM     11  C   UNL     1       5.348   4.147  -0.355  0.00  0.00    +0.000 C 
BRANCH  11  17
ATOM     12  C   UNL     1       6.709   7.817  -2.076  0.00  0.00    +0.000 C 
ATOM     13  C   UNL     1       6.361   7.767  -0.586  0.00  0.00    +0.000 C 
ATOM     14  C   UNL     1       6.400   6.314  -0.107  0.00  0.00    +0.000 C 
ATOM     15  C   UNL     1       5.780   5.511  -2.308  0.00  0.00    +0.000 C 
ATOM     16  C   UNL     1       5.722   6.940  -2.853  0.00  0.00    +0.000 C 
ATOM     17  N   UNL     1       5.411   5.528  -0.876  0.00  0.00    +0.000 N 
ATOM     18  H   UNL     1       4.485   5.967  -0.775  0.00  0.00    +0.000 HD
ENDBRANCH  11  17
ENDBRANCH  10  11
ENDBRANCH   1  10
BRANCH   3  19
ATOM     19  N   UNL     1       3.058   2.075  -3.257  0.00  0.00    +0.000 N 
BRANCH  19  20
ATOM     20  O   UNL     1       2.913   2.224  -4.657  0.00  0.00    +0.000 OA
ATOM     21  H   UNL     1       2.636   1.330  -4.982  0.00  0.00    +0.000 HD
ENDBRANCH  19  20
BRANCH  19  22
ATOM     22  O   UNL     1       2.328   2.910  -2.377  0.00  0.00    +0.000 OA
ATOM     23  H   UNL     1       3.014   3.343  -1.808  0.00  0.00    +0.000 HD
ENDBRANCH  19  22
ENDBRANCH   3  19
TORSDOF 6
ENDMDL
MODEL      770
REMARK  Name = ZINC05521415
REMARK  7 active torsions:
REMARK  status: ('A' for Active; 'I' for Inactive)
REMARK    1  A    between atoms: C_2  and  C_15
REMARK    2  A    between atoms: N_3  and  C1*_6
REMARK    3  A    between atoms: C2*_7  and  O2*_14
REMARK    4  A    between atoms: C3*_8  and  O3*_13
REMARK    5  A    between atoms: C4*_9  and  C5*_11
REMARK    6  A    between atoms: C5*_11  and  O5*_12
REMARK    7  A    between atoms: C_15  and  N_16
REMARK                            x       y       z     vdW  Elec       q    Type
REMARK                         _______ _______ _______ _____ _____    ______ ____
ROOT
ATOM      1  C1* UNL     1       1.778   1.488  -1.371  0.00  0.00    +0.000 C 
ATOM      2  C2* UNL     1       0.552   1.893  -2.220  0.00  0.00    +0.000 C 
ATOM      3  C3* UNL     1      -0.653   1.622  -1.292  0.00  0.00    +0.000 C 
ATOM      4  C4* UNL     1      -0.013   1.086   0.008  0.00  0.00    +0.000 C 
ATOM      5  O4* UNL     1       1.334   1.607  -0.002  0.00  0.00    +0.000 OA
ENDROOT
BRANCH   1   8
ATOM      6  C   UNL     1       4.784   3.215  -2.302  0.00  0.00    +0.000 A 
ATOM      7  C   UNL     1       4.027   2.093  -2.306  0.00  0.00    +0.000 A 
ATOM      8  N   UNL     1       2.899   2.397  -1.625  0.00  0.00    +0.000 N 
ATOM      9  N   UNL     1       2.981   3.620  -1.233  0.00  0.00    +0.000 NA
ATOM     10  N   UNL     1       4.094   4.137  -1.621  0.00  0.00    +0.000 NA
BRANCH   7  11
ATOM     11  C   UNL     1       4.372   0.772  -2.943  0.00  0.00    +0.000 C 
BRANCH  11  12
ATOM     12  N   UNL     1       4.974  -0.111  -1.942  0.00  0.00    +0.000 NA
ATOM     13  N   UNL     1       4.489  -1.094  -1.694  0.00  0.00    +0.000 NA
ATOM     14  N   UNL     1       4.003  -2.077  -1.446  0.00  0.00    +0.000 NA
ENDBRANCH  11  12
ENDBRANCH   7  11
ENDBRANCH   1   8
BRANCH   2  15
ATOM     15  O2* UNL     1       0.617   3.278  -2.565  0.00  0.00    +0.000 OA
ATOM     16  H2* UNL     1       1.445   3.445  -3.080  0.00  0.00    +0.000 HD
ENDBRANCH   2  15
BRANCH   3  17
ATOM     17  O3* UNL     1      -1.369   2.832  -1.034  0.00  0.00    +0.000 OA
ATOM     18  H3* UNL     1      -1.691   3.205  -1.893  0.00  0.00    +0.000 HD
ENDBRANCH   3  17
BRANCH   4  19
ATOM     19  C5* UNL     1      -0.774   1.600   1.232  0.00  0.00    +0.000 C 
BRANCH  19  20
ATOM     20  O5* UNL     1      -0.213   1.030   2.416  0.00  0.00    +0.000 OA
ATOM     21  H5* UNL     1       0.740   1.288   2.488  0.00  0.00    +0.000 HD
ENDBRANCH  19  20
ENDBRANCH   4  19
TORSDOF 7
ENDMDL
MODEL      771
REMARK  Name = ZINC20843215
REMARK  8 active torsions:
REMARK  status: ('A' for Active; 'I' for Inactive)
REMARK    1  A    between atoms: C_1  and  C_2
REMARK    2  A    between atoms: C_2  and  C_3
REMARK    3  A    between atoms: C_6  and  S_9
REMARK    4  A    between atoms: N_7  and  N_8
REMARK    5  A    between atoms: S_9  and  C_10
REMARK    6  A    between atoms: C_10  and  C_11
REMARK    7  A    between atoms: N_13  and  N_14
REMARK    8  A    between atoms: C_15  and  C_17
REMARK                            x       y       z     vdW  Elec       q    Type
REMARK                         _______ _______ _______ _____ _____    ______ ____
ROOT
ATOM      1  S   UNL     1      -3.205   1.569   0.282  0.00  0.00    +0.000 S 
ENDROOT
BRANCH   1   5
ATOM      2  C   UNL     1      -0.282   1.804  -2.290  0.00  0.00    +0.000 A 
ATOM      3  N   UNL     1      -1.301   2.228  -2.982  0.00  0.00    +0.000 NA
ATOM      4  N   UNL     1      -2.363   2.212  -2.259  0.00  0.00    +0.000 NA
ATOM      5  C   UNL     1      -2.077   1.768  -1.057  0.00  0.00    +0.000 A 
ATOM      6  N   UNL     1      -0.741   1.490  -1.041  0.00  0.00    +0.000 N 
BRANCH   6   7
ATOM      7  N   UNL     1      -0.012   1.005   0.008  0.00  0.00    +0.000 N 
ATOM      8  H   UNL     1       0.991   0.868  -0.187  0.00  0.00    +0.000 HD
ATOM      9  H   UNL     1      -0.415   0.786   0.930  0.00  0.00    +0.000 HD
ENDBRANCH   6   7
BRANCH   2  11
ATOM     10  C   UNL     1       1.352   0.290  -3.379  0.00  0.00    +0.000 C 
ATOM     11  C   UNL     1       1.139   1.680  -2.777  0.00  0.00    +0.000 C 
ENDBRANCH   2  11
ENDBRANCH   1   5
BRANCH   1  12
ATOM     12  C   UNL     1      -4.733   2.134  -0.507  0.00  0.00    +0.000 C 
BRANCH  12  13
ATOM     13  C   UNL     1      -5.869   2.049   0.480  0.00  0.00    +0.000 C 
ATOM     14  O   UNL     1      -5.665   1.646   1.605  0.00  0.00    +0.000 OA
ATOM     15  N   UNL     1      -7.111   2.420   0.111  0.00  0.00    +0.000 N 
ATOM     16  H   UNL     1      -7.284   2.762  -0.845  0.00  0.00    +0.000 HD
BRANCH  15  17
ATOM     17  N   UNL     1      -8.167   2.342   1.028  0.00  0.00    +0.000 N 
ATOM     18  C   UNL     1      -9.409   2.713   0.659  0.00  0.00    +0.000 C 
ATOM     19  O   UNL     1      -9.612   3.116  -0.466  0.00  0.00    +0.000 OA
ATOM     20  C   UNL     1     -10.545   2.628   1.646  0.00  0.00    +0.000 C 
ATOM     21  H   UNL     1      -7.994   2.000   1.984  0.00  0.00    +0.000 HD
ENDBRANCH  15  17
ENDBRANCH  12  13
ENDBRANCH   1  12
TORSDOF 6
ENDMDL
MODEL      772
REMARK  Name = ZINC19844186
REMARK  7 active torsions:
REMARK  status: ('A' for Active; 'I' for Inactive)
REMARK    1  A    between atoms: C_1  and  O_2
REMARK    2  A    between atoms: O_2  and  C_3
REMARK    3  A    between atoms: C_7  and  N_9
REMARK    4  A    between atoms: N_12  and  S_15
REMARK    5  A    between atoms: S_15  and  C_18
REMARK    6  A    between atoms: C_18  and  C_19
REMARK    7  A    between atoms: C_19  and  N_20
REMARK                            x       y       z     vdW  Elec       q    Type
REMARK                         _______ _______ _______ _____ _____    ______ ____
ROOT
ATOM      1  N   UNL     1      -0.800   1.633   5.971  0.00  0.00    +0.000 N 
ATOM      2  C   UNL     1      -0.929   3.096   6.016  0.00  0.00    +0.000 C 
ATOM      3  C   UNL     1      -1.750   3.496   7.247  0.00  0.00    +0.000 C 
ATOM      4  N   UNL     1      -1.134   2.889   8.437  0.00  0.00    +0.000 NA
ATOM      5  C   UNL     1      -0.847   1.446   8.412  0.00  0.00    +0.000 C 
ATOM      6  C   UNL     1      -0.062   1.128   7.136  0.00  0.00    +0.000 C 
ENDROOT
BRANCH   1  11
ATOM      7  C   UNL     1      -0.149   1.182   2.380  0.00  0.00    +0.000 A 
ATOM      8  C   UNL     1       0.992   0.392   2.420  0.00  0.00    +0.000 A 
ATOM      9  C   UNL     1       1.538   0.025   3.635  0.00  0.00    +0.000 A 
ATOM     10  C   UNL     1       0.945   0.434   4.814  0.00  0.00    +0.000 A 
ATOM     11  C   UNL     1      -0.200   1.220   4.780  0.00  0.00    +0.000 A 
ATOM     12  C   UNL     1      -0.747   1.594   3.560  0.00  0.00    +0.000 A 
BRANCH   7  14
ATOM     13  C   UNL     1      -0.013   1.086   0.008  0.00  0.00    +0.000 C 
ATOM     14  O   UNL     1      -0.682   1.547   1.184  0.00  0.00    +0.000 OA
ENDBRANCH   7  14
ENDBRANCH   1  11
BRANCH   4  15
ATOM     15  S   UNL     1      -0.772   3.805   9.768  0.00  0.00    +0.000 S 
ATOM     16  O   UNL     1      -1.682   4.895   9.715  0.00  0.00    +0.000 OA
ATOM     17  O   UNL     1      -0.798   2.891  10.855  0.00  0.00    +0.000 OA
BRANCH  15  18
ATOM     18  C   UNL     1       0.921   4.391   9.484  0.00  0.00    +0.000 C 
BRANCH  18  19
ATOM     19  C   UNL     1       1.365   5.258  10.664  0.00  0.00    +0.000 C 
BRANCH  19  20
ATOM     20  N   UNL     1       2.736   5.732  10.435  0.00  0.00    +0.000 N 
ATOM     21  H   UNL     1       2.768   6.289   9.569  0.00  0.00    +0.000 HD
ATOM     22  H   UNL     1       3.369   4.924  10.346  0.00  0.00    +0.000 HD
ATOM     23  H   UNL     1       3.036   6.316  11.229  0.00  0.00    +0.000 HD
ENDBRANCH  19  20
ENDBRANCH  18  19
ENDBRANCH  15  18
ENDBRANCH   4  15
TORSDOF 6
ENDMDL
MODEL      773
REMARK  Name = ZINC06493486
REMARK  7 active torsions:
REMARK  status: ('A' for Active; 'I' for Inactive)
REMARK    1  A    between atoms: C_1  and  C_2
REMARK    2  A    between atoms: C_2  and  O_3
REMARK    3  A    between atoms: O_3  and  C_4
REMARK    4  A    between atoms: C_4  and  C_6
REMARK    5  A    between atoms: C_7  and  C_11
REMARK    6  A    between atoms: N_13  and  C_14
REMARK    7  A    between atoms: C_17  and  N_20
REMARK                            x       y       z     vdW  Elec       q    Type
REMARK                         _______ _______ _______ _____ _____    ______ ____
ROOT
ATOM      1  C   UNL     1       1.558   4.308   0.008  0.00  0.00    +0.000 C 
ATOM      2  O   UNL     1       1.087   5.428   0.008  0.00  0.00    +0.000 OA
ATOM      3  N   UNL     1       2.895   4.139  -0.003  0.00  0.00    +0.000 N 
ATOM      4  H   UNL     1       3.296   3.193   0.068  0.00  0.00    +0.000 HD
ENDROOT
BRANCH   3   5
ATOM      5  C   UNL     1       3.740   5.251  -0.111  0.00  0.00    +0.000 A 
ATOM      6  C   UNL     1       4.934   5.150  -0.814  0.00  0.00    +0.000 A 
ATOM      7  C   UNL     1       5.764   6.247  -0.925  0.00  0.00    +0.000 A 
ATOM      8  C   UNL     1       5.411   7.449  -0.324  0.00  0.00    +0.000 A 
ATOM      9  C   UNL     1       4.220   7.548   0.383  0.00  0.00    +0.000 A 
ATOM     10  C   UNL     1       3.387   6.452   0.490  0.00  0.00    +0.000 A 
BRANCH   8  11
ATOM     11  N   UNL     1       6.255   8.559  -0.432  0.00  0.00    +0.000 N 
ATOM     12  H   UNL     1       7.138   8.486  -0.957  0.00  0.00    +0.000 HD
ATOM     13  H   UNL     1       5.993   9.451   0.013  0.00  0.00    +0.000 HD
ENDBRANCH   8  11
ENDBRANCH   3   5
BRANCH   1  15
ATOM     14  C   UNL     1      -0.724   3.149   0.031  0.00  0.00    +0.000 A 
ATOM     15  C   UNL     1       0.665   3.130   0.019  0.00  0.00    +0.000 A 
ATOM     16  N   UNL     1       1.045   1.841   0.019  0.00  0.00    +0.000 NA
ATOM     17  C   UNL     1      -0.012   1.075   0.030  0.00  0.00    +0.000 A 
ATOM     18  N   UNL     1      -1.123   1.835   0.032  0.00  0.00    +0.000 NA
BRANCH  14  19
ATOM     19  C   UNL     1      -1.592   4.336   0.035  0.00  0.00    +0.000 C 
ATOM     20  O   UNL     1      -1.101   5.448   0.027  0.00  0.00    +0.000 OA
BRANCH  19  21
ATOM     21  O   UNL     1      -2.933   4.192   0.047  0.00  0.00    +0.000 OA
BRANCH  21  23
ATOM     22  C   UNL     1      -5.213   5.045   0.064  0.00  0.00    +0.000 C 
ATOM     23  C   UNL     1      -3.727   5.407   0.050  0.00  0.00    +0.000 C 
ENDBRANCH  21  23
ENDBRANCH  19  21
ENDBRANCH  14  19
ENDBRANCH   1  15
TORSDOF 6
ENDMDL
MODEL      774
REMARK  Name = ZINC19733065
REMARK  6 active torsions:
REMARK  status: ('A' for Active; 'I' for Inactive)
REMARK    1  A    between atoms: C_3  and  N_16
REMARK    2  A    between atoms: C_6  and  C_7
REMARK    3  A    between atoms: C_7  and  C_8
REMARK    4  A    between atoms: C_11  and  C_13
REMARK    5  A    between atoms: C_13  and  C_14
REMARK    6  A    between atoms: C_14  and  N_15
REMARK                            x       y       z     vdW  Elec       q    Type
REMARK                         _______ _______ _______ _____ _____    ______ ____
ROOT
ATOM      1  C   UNL     1       0.641  -0.117   4.156  0.00  0.00    +0.000 A 
ATOM      2  N   UNL     1       1.351   0.975   4.109  0.00  0.00    +0.000 NA
ATOM      3  N   UNL     1       0.967   1.690   3.111  0.00  0.00    +0.000 NA
ATOM      4  C   UNL     1       0.000   1.080   2.488  0.00  0.00    +0.000 A 
ATOM      5  O   UNL     1      -0.232  -0.074   3.136  0.00  0.00    +0.000 OA
ENDROOT
BRANCH   1   6
ATOM      6  C   UNL     1       0.772  -1.223   5.172  0.00  0.00    +0.000 C 
BRANCH   6  12
ATOM      7  C   UNL     1       0.340  -0.214   7.421  0.00  0.00    +0.000 A 
ATOM      8  C   UNL     1      -0.492   0.050   8.494  0.00  0.00    +0.000 A 
ATOM      9  C   UNL     1      -1.792  -0.418   8.492  0.00  0.00    +0.000 A 
ATOM     10  C   UNL     1      -2.263  -1.147   7.416  0.00  0.00    +0.000 A 
ATOM     11  C   UNL     1      -1.433  -1.408   6.342  0.00  0.00    +0.000 A 
ATOM     12  C   UNL     1      -0.133  -0.939   6.343  0.00  0.00    +0.000 A 
BRANCH   9  13
ATOM     13  N   UNL     1      -2.681  -0.138   9.642  0.00  0.00    +0.000 N 
ATOM     14  O   UNL     1      -3.827  -0.550   9.640  0.00  0.00    +0.000 OA
ATOM     15  O   UNL     1      -2.267   0.504  10.590  0.00  0.00    +0.000 OA
ENDBRANCH   9  13
ENDBRANCH   6  12
ENDBRANCH   1   6
BRANCH   4  16
ATOM     16  C   UNL     1      -0.729   1.579   1.267  0.00  0.00    +0.000 C 
BRANCH  16  17
ATOM     17  C   UNL     1      -0.013   1.086   0.008  0.00  0.00    +0.000 C 
BRANCH  17  18
ATOM     18  N   UNL     1      -0.723   1.572  -1.182  0.00  0.00    +0.000 N 
ATOM     19  H   UNL     1      -0.738   2.602  -1.177  0.00  0.00    +0.000 HD
ATOM     20  H   UNL     1      -1.690   1.216  -1.176  0.00  0.00    +0.000 HD
ATOM     21  H   UNL     1      -0.242   1.240  -2.030  0.00  0.00    +0.000 HD
ENDBRANCH  17  18
ENDBRANCH  16  17
ENDBRANCH   4  16
TORSDOF 6
ENDMDL
MODEL      775
REMARK  Name = ZINC20185343
REMARK  6 active torsions:
REMARK  status: ('A' for Active; 'I' for Inactive)
REMARK    1  A    between atoms: C_1  and  C_2
REMARK    2  A    between atoms: C_2  and  N_3
REMARK    3  A    between atoms: N_3  and  C_12
REMARK    4  A    between atoms: C_6  and  C_9
REMARK    5  A    between atoms: C_9  and  C_10
REMARK    6  A    between atoms: C_10  and  N_11
REMARK                            x       y       z     vdW  Elec       q    Type
REMARK                         _______ _______ _______ _____ _____    ______ ____
ROOT
ATOM      1  N   UNL     1       0.052   1.395  -2.422  0.00  0.00    +0.000 N 
ATOM      2  C   UNL     1       1.299   1.993  -2.518  0.00  0.00    +0.000 A 
ATOM      3  N   UNL     1       2.178   1.924  -3.499  0.00  0.00    +0.000 NA
ATOM      4  C   UNL     1       3.330   2.566  -3.430  0.00  0.00    +0.000 A 
ATOM      5  C   UNL     1       3.598   3.294  -2.321  0.00  0.00    +0.000 A 
ATOM      6  S   UNL     1       2.107   3.020  -1.375  0.00  0.00    +0.000 S 
ENDROOT
BRANCH   1   7
ATOM      7  C   UNL     1      -0.770   1.602  -1.227  0.00  0.00    +0.000 C 
ATOM      8  C   UNL     1      -0.013   1.086   0.008  0.00  0.00    +0.000 C 
ATOM      9  C   UNL     1      -0.754   1.594   1.277  0.00  0.00    +0.000 C 
ATOM     10  S   UNL     1      -1.173   3.312   0.758  0.00  0.00    +0.000 S 
ATOM     11  O   UNL     1      -0.138   4.188   1.183  0.00  0.00    +0.000 OA
ATOM     12  O   UNL     1      -2.518   3.590   1.121  0.00  0.00    +0.000 OA
ATOM     13  C   UNL     1      -1.074   3.111  -1.067  0.00  0.00    +0.000 C 
ENDBRANCH   1   7
BRANCH   1  15
ATOM     14  C   UNL     1      -1.220   1.423  -4.511  0.00  0.00    +0.000 C 
ATOM     15  C   UNL     1      -0.444   0.557  -3.516  0.00  0.00    +0.000 C 
ENDBRANCH   1  15
BRANCH   4  16
ATOM     16  C   UNL     1       4.325   2.485  -4.559  0.00  0.00    +0.000 C 
BRANCH  16  17
ATOM     17  C   UNL     1       5.341   1.379  -4.264  0.00  0.00    +0.000 C 
BRANCH  17  18
ATOM     18  N   UNL     1       6.312   1.300  -5.364  0.00  0.00    +0.000 N 
ATOM     19  H   UNL     1       6.803   2.201  -5.455  0.00  0.00    +0.000 HD
ATOM     20  H   UNL     1       5.819   1.088  -6.244  0.00  0.00    +0.000 HD
ATOM     21  H   UNL     1       6.995   0.556  -5.167  0.00  0.00    +0.000 HD
ENDBRANCH  17  18
ENDBRANCH  16  17
ENDBRANCH   4  16
TORSDOF 5
ENDMDL
MODEL      776
REMARK  Name = ZINC05472967
REMARK  7 active torsions:
REMARK  status: ('A' for Active; 'I' for Inactive)
REMARK    1  A    between atoms: C_1  and  C_2
REMARK    2  A    between atoms: C_2  and  C_3
REMARK    3  A    between atoms: C_2  and  C_5
REMARK    4  A    between atoms: C_2  and  N_8
REMARK    5  A    between atoms: C_9  and  C_11
REMARK    6  A    between atoms: C_11  and  S_12
REMARK    7  A    between atoms: S_12  and  C_13
REMARK                            x       y       z     vdW  Elec       q    Type
REMARK                         _______ _______ _______ _____ _____    ______ ____
ROOT
ATOM      1  N   UNL     1       0.002  -0.004   0.002  0.00  0.00    +0.000 N 
ATOM      2  C   UNL     1      -0.016   1.344   0.009  0.00  0.00    +0.000 C 
ATOM      3  O   UNL     1       1.026   1.964   0.003  0.00  0.00    +0.000 OA
ATOM      4  H   UNL     1      -0.883  -0.531   0.008  0.00  0.00    +0.000 HD
ENDROOT
BRANCH   1   6
ATOM      5  C   UNL     1       2.090  -0.345   1.230  0.00  0.00    +0.000 C 
ATOM      6  C   UNL     1       1.281  -0.719  -0.014  0.00  0.00    +0.000 C 
BRANCH   6   7
ATOM      7  C   UNL     1       1.021  -2.227  -0.020  0.00  0.00    +0.000 C 
ATOM      8  C   UNL     1       1.508  -3.032   1.187  0.00  0.00    +0.000 C 
ATOM      9  C   UNL     1       2.233  -3.152  -0.154  0.00  0.00    +0.000 C 
ENDBRANCH   6   7
BRANCH   6  10
ATOM     10  C   UNL     1       2.036  -0.347  -1.221  0.00  0.00    +0.000 C 
ATOM     11  N   UNL     1       2.619  -0.059  -2.153  0.00  0.00    +0.000 NA
ENDBRANCH   6  10
ENDBRANCH   1   6
BRANCH   2  12
ATOM     12  C   UNL     1      -1.331   2.079   0.020  0.00  0.00    +0.000 C 
BRANCH  12  13
ATOM     13  S   UNL     1      -1.024   3.867   0.028  0.00  0.00    +0.000 S 
BRANCH  13  14
ATOM     14  C   UNL     1      -2.637   4.577   0.039  0.00  0.00    +0.000 A 
ATOM     15  N   UNL     1      -2.927   5.912   0.048  0.00  0.00    +0.000 N 
ATOM     16  C   UNL     1      -4.286   6.049   0.054  0.00  0.00    +0.000 A 
ATOM     17  N   UNL     1      -4.814   4.850   0.050  0.00  0.00    +0.000 NA
ATOM     18  N   UNL     1      -3.769   3.917   0.035  0.00  0.00    +0.000 NA
ATOM     19  N   UNL     1      -4.986   7.249   0.064  0.00  0.00    +0.000 N 
ATOM     20  H   UNL     1      -2.241   6.681   0.050  0.00  0.00    +0.000 HD
ATOM     21  H   UNL     1      -4.410   8.103   0.066  0.00  0.00    +0.000 HD
ATOM     22  H   UNL     1      -6.015   7.298   0.068  0.00  0.00    +0.000 HD
ENDBRANCH  13  14
ENDBRANCH  12  13
ENDBRANCH   2  12
TORSDOF 6
ENDMDL
MODEL      777
REMARK  Name = ZINC22219248
REMARK  5 active torsions:
REMARK  status: ('A' for Active; 'I' for Inactive)
REMARK    1  A    between atoms: C_4  and  N_9
REMARK    2  A    between atoms: C_5  and  C_7
REMARK    3  A    between atoms: C_7  and  N_8
REMARK    4  A    between atoms: C_10  and  C_12
REMARK    5  A    between atoms: C_12  and  N_13
REMARK                            x       y       z     vdW  Elec       q    Type
REMARK                         _______ _______ _______ _____ _____    ______ ____
ROOT
ATOM      1  N   UNL     1      -0.017   1.395   0.010  0.00  0.00    +0.000 N 
ATOM      2  C   UNL     1       1.174   2.026   0.002  0.00  0.00    +0.000 C 
ATOM      3  O   UNL     1       2.199   1.386  -0.099  0.00  0.00    +0.000 OA
ATOM      4  H   UNL     1      -0.890   1.942   0.010  0.00  0.00    +0.000 HD
ENDROOT
BRANCH   1   8
ATOM      5  C   UNL     1      -0.167  -2.768   0.030  0.00  0.00    +0.000 A 
ATOM      6  C   UNL     1       0.944  -2.115   0.531  0.00  0.00    +0.000 A 
ATOM      7  C   UNL     1       0.999  -0.736   0.521  0.00  0.00    +0.000 A 
ATOM      8  C   UNL     1      -0.067  -0.003   0.017  0.00  0.00    +0.000 A 
ATOM      9  C   UNL     1      -1.182  -0.662  -0.486  0.00  0.00    +0.000 A 
ATOM     10  C   UNL     1      -1.228  -2.042  -0.478  0.00  0.00    +0.000 A 
BRANCH   9  11
ATOM     11  C   UNL     1      -2.339   0.129  -1.041  0.00  0.00    +0.000 C 
BRANCH  11  12
ATOM     12  N   UNL     1      -2.024   0.563  -2.408  0.00  0.00    +0.000 N 
ATOM     13  H   UNL     1      -1.857  -0.262  -3.002  0.00  0.00    +0.000 HD
ATOM     14  H   UNL     1      -1.180   1.153  -2.397  0.00  0.00    +0.000 HD
ATOM     15  H   UNL     1      -2.815   1.104  -2.788  0.00  0.00    +0.000 HD
ENDBRANCH  11  12
ENDBRANCH   9  11
ENDBRANCH   1   8
BRANCH   2  16
ATOM     16  C   UNL     1       1.232   3.528   0.121  0.00  0.00    +0.000 C 
BRANCH  16  17
ATOM     17  N   UNL     1       2.629   3.967   0.088  0.00  0.00    +0.000 N 
ATOM     18  C   UNL     1       3.347   3.980   1.226  0.00  0.00    +0.000 A 
ATOM     19  O   UNL     1       2.836   3.630   2.272  0.00  0.00    +0.000 OA
ATOM     20  C   UNL     1       4.759   4.417   1.204  0.00  0.00    +0.000 A 
ATOM     21  C   UNL     1       5.305   4.806   0.037  0.00  0.00    +0.000 A 
ATOM     22  C   UNL     1       4.477   4.780  -1.187  0.00  0.00    +0.000 A 
ATOM     23  O   UNL     1       4.953   5.128  -2.250  0.00  0.00    +0.000 OA
ATOM     24  N   UNL     1       3.196   4.371  -1.125  0.00  0.00    +0.000 NA
ENDBRANCH  16  17
ENDBRANCH   2  16
TORSDOF 5
ENDMDL
MODEL      778
REMARK  Name = ZINC24532406
REMARK  6 active torsions:
REMARK  status: ('A' for Active; 'I' for Inactive)
REMARK    1  A    between atoms: C_2  and  C_6
REMARK    2  A    between atoms: C_6  and  C_7
REMARK    3  A    between atoms: C_7  and  C_8
REMARK    4  A    between atoms: C_7  and  N_14
REMARK    5  A    between atoms: C_8  and  O_9
REMARK    6  A    between atoms: O_9  and  P_10
REMARK                            x       y       z     vdW  Elec       q    Type
REMARK                         _______ _______ _______ _____ _____    ______ ____
ROOT
ATOM      1  C   UNL     1      -1.771   3.648   2.925  0.00  0.00    +0.000 C 
ENDROOT
BRANCH   1   2
ATOM      2  N   UNL     1      -0.876   3.228   4.011  0.00  0.00    +0.000 N 
ATOM      3  H   UNL     1      -1.362   3.323   4.914  0.00  0.00    +0.000 HD
ATOM      4  H   UNL     1      -0.033   3.820   4.011  0.00  0.00    +0.000 HD
ATOM      5  H   UNL     1      -0.603   2.244   3.872  0.00  0.00    +0.000 HD
ENDBRANCH   1   2
BRANCH   1   6
ATOM      6  C   UNL     1      -2.176   5.108   3.133  0.00  0.00    +0.000 C 
BRANCH   6   8
ATOM      7  C   UNL     1      -2.522   5.368   5.647  0.00  0.00    +0.000 A 
ATOM      8  C   UNL     1      -2.994   5.228   4.393  0.00  0.00    +0.000 A 
ATOM      9  N   UNL     1      -4.360   5.222   4.483  0.00  0.00    +0.000 NA
ATOM     10  C   UNL     1      -4.675   5.350   5.790  0.00  0.00    +0.000 A 
ATOM     11  N   UNL     1      -3.571   5.439   6.480  0.00  0.00    +0.000 N 
ATOM     12  H   UNL     1      -3.514   5.548   7.502  0.00  0.00    +0.000 HD
ENDBRANCH   6   8
ENDBRANCH   1   6
BRANCH   1  13
ATOM     13  C   UNL     1      -1.048   3.505   1.584  0.00  0.00    +0.000 C 
BRANCH  13  14
ATOM     14  O   UNL     1      -0.773   2.125   1.335  0.00  0.00    +0.000 OA
BRANCH  14  15
ATOM     15  P   UNL     1      -0.020   1.606   0.011  0.00  0.00    +0.000 P 
ATOM     16  O   UNL     1      -0.736   2.096  -1.188  0.00  0.00    +0.000 OA
ATOM     17  O   UNL     1       0.002  -0.004   0.002  0.00  0.00    +0.000 OA
ATOM     18  O   UNL     1       1.491   2.163  -0.001  0.00  0.00    +0.000 OA
ENDBRANCH  14  15
ENDBRANCH  13  14
ENDBRANCH   1  13
TORSDOF 6
ENDMDL
MODEL      779
REMARK  Name = ZINC05574015
REMARK  7 active torsions:
REMARK  status: ('A' for Active; 'I' for Inactive)
REMARK    1  A    between atoms: C_1  and  C_2
REMARK    2  A    between atoms: C_2  and  O_3
REMARK    3  A    between atoms: O_3  and  C_4
REMARK    4  A    between atoms: N_5  and  C_6
REMARK    5  A    between atoms: C_6  and  N_8
REMARK    6  A    between atoms: C_9  and  O_11
REMARK    7  A    between atoms: O_11  and  C_12
REMARK                            x       y       z     vdW  Elec       q    Type
REMARK                         _______ _______ _______ _____ _____    ______ ____
ROOT
ATOM      1  C   UNL     1       2.240  -0.465   0.083  0.00  0.00    +0.000 C 
ATOM      2  N   UNL     1       1.095  -1.081  -0.111  0.00  0.00    +0.000 NA
ATOM      3  H   UNL     1       0.234  -0.535  -0.254  0.00  0.00    +0.000 HD
ENDROOT
BRANCH   1   4
ATOM      4  N   UNL     1       3.376  -1.186   0.272  0.00  0.00    +0.000 NA
ATOM      5  C   UNL     1       3.316  -2.497   0.363  0.00  0.00    +0.000 C 
ATOM      6  N   UNL     1       4.440  -3.213   0.659  0.00  0.00    +0.000 N 
ATOM      7  H   UNL     1       5.335  -2.727   0.811  0.00  0.00    +0.000 HD
ATOM      8  H   UNL     1       4.393  -4.240   0.731  0.00  0.00    +0.000 HD
BRANCH   5   9
ATOM      9  O   UNL     1       2.144  -3.133   0.165  0.00  0.00    +0.000 OA
ATOM     10  C   UNL     1       2.127  -4.568   0.391  0.00  0.00    +0.000 C 
ENDBRANCH   5   9
ENDBRANCH   1   4
BRANCH   1  12
ATOM     11  C   UNL     1       1.177   1.590   0.022  0.00  0.00    +0.000 C 
ATOM     12  N   UNL     1       2.287   0.895   0.094  0.00  0.00    +0.000 NA
ATOM     13  O   UNL     1      -0.015   0.962   0.049  0.00  0.00    +0.000 OA
BRANCH  11  14
ATOM     14  O   UNL     1       1.228   2.933  -0.081  0.00  0.00    +0.000 OA
BRANCH  14  16
ATOM     15  C   UNL     1       2.404   5.061  -0.224  0.00  0.00    +0.000 C 
ATOM     16  C   UNL     1       2.546   3.542  -0.104  0.00  0.00    +0.000 C 
ENDBRANCH  14  16
ENDBRANCH  11  14
ENDBRANCH   1  12
TORSDOF 5
ENDMDL
MODEL      780
REMARK  Name = ZINC26806701
REMARK  7 active torsions:
REMARK  status: ('A' for Active; 'I' for Inactive)
REMARK    1  A    between atoms: C_1  and  O_2
REMARK    2  A    between atoms: O_2  and  C_3
REMARK    3  A    between atoms: C_8  and  C_9
REMARK    4  A    between atoms: C_11  and  S_14
REMARK    5  A    between atoms: S_14  and  C_15
REMARK    6  A    between atoms: C_15  and  C_16
REMARK    7  A    between atoms: N_18  and  N_19
REMARK                            x       y       z     vdW  Elec       q    Type
REMARK                         _______ _______ _______ _____ _____    ______ ____
ROOT
ATOM      1  C   UNL     1      -2.043   2.423   3.500  0.00  0.00    +0.000 A 
ATOM      2  N   UNL     1      -2.622   2.898   4.655  0.00  0.00    +0.000 NA
ATOM      3  C   UNL     1      -1.651   3.631   5.278  0.00  0.00    +0.000 A 
ATOM      4  N   UNL     1      -0.578   3.578   4.523  0.00  0.00    +0.000 N 
ATOM      5  N   UNL     1      -0.806   2.863   3.480  0.00  0.00    +0.000 NA
ATOM      6  H   UNL     1       0.316   4.043   4.735  0.00  0.00    +0.000 HD
ENDROOT
BRANCH   1  12
ATOM      7  C   UNL     1      -1.978   1.174   1.342  0.00  0.00    +0.000 A 
ATOM      8  C   UNL     1      -2.593   0.377   0.391  0.00  0.00    +0.000 A 
ATOM      9  C   UNL     1      -3.908  -0.014   0.559  0.00  0.00    +0.000 A 
ATOM     10  C   UNL     1      -4.619   0.388   1.677  0.00  0.00    +0.000 A 
ATOM     11  C   UNL     1      -4.021   1.182   2.633  0.00  0.00    +0.000 A 
ATOM     12  C   UNL     1      -2.692   1.578   2.477  0.00  0.00    +0.000 A 
BRANCH   7  14
ATOM     13  C   UNL     1      -0.019   1.103  -0.002  0.00  0.00    +0.000 C 
ATOM     14  O   UNL     1      -0.686   1.558   1.177  0.00  0.00    +0.000 OA
ENDBRANCH   7  14
ENDBRANCH   1  12
BRANCH   3  15
ATOM     15  S   UNL     1      -1.811   4.487   6.810  0.00  0.00    +0.000 S 
BRANCH  15  16
ATOM     16  C   UNL     1      -0.149   5.190   6.951  0.00  0.00    +0.000 C 
BRANCH  16  17
ATOM     17  C   UNL     1      -0.048   5.989   8.225  0.00  0.00    +0.000 C 
ATOM     18  O   UNL     1      -1.005   6.075   8.964  0.00  0.00    +0.000 OA
ATOM     19  N   UNL     1       1.107   6.608   8.543  0.00  0.00    +0.000 N 
ATOM     20  H   UNL     1       1.920   6.535   7.915  0.00  0.00    +0.000 HD
BRANCH  19  21
ATOM     21  N   UNL     1       1.198   7.332   9.697  0.00  0.00    +0.000 NA
ATOM     22  H   UNL     1       0.385   7.405  10.325  0.00  0.00    +0.000 HD
ATOM     23  H   UNL     1       2.080   7.805   9.940  0.00  0.00    +0.000 HD
ENDBRANCH  19  21
ENDBRANCH  16  17
ENDBRANCH  15  16
ENDBRANCH   3  15
TORSDOF 6
ENDMDL
MODEL      781
REMARK  Name = ZINC05665801
REMARK  11 active torsions:
REMARK  status: ('A' for Active; 'I' for Inactive)
REMARK    1  A    between atoms: C_1  and  C_2
REMARK    2  A    between atoms: C_3  and  C_4
REMARK    3  A    between atoms: C_3  and  N_20
REMARK    4  A    between atoms: N_7  and  C_14
REMARK    5  A    between atoms: N_10  and  C_13
REMARK    6  A    between atoms: C_15  and  C_16
REMARK    7  A    between atoms: C_15  and  N_20
REMARK    8  A    between atoms: C_16  and  C_17
REMARK    9  A    between atoms: C_17  and  N_21
REMARK   10  A    between atoms: C_18  and  N_21
REMARK   11  A    between atoms: C_19  and  N_21
REMARK                            x       y       z     vdW  Elec       q    Type
REMARK                         _______ _______ _______ _____ _____    ______ ____
ROOT
ATOM      1  C   UNL     1      -1.203   0.061   2.134  0.00  0.00    +0.000 C 
ATOM      2  C   UNL     1      -0.551  -0.677   0.994  0.00  0.00    +0.000 C 
ATOM      3  C   UNL     1       0.002  -0.004   0.002  0.00  0.00    +0.000 C 
ENDROOT
BRANCH   3   4
ATOM      4  C   UNL     1      -0.018   1.503   0.010  0.00  0.00    +0.000 A 
ATOM      5  C   UNL     1      -0.896   1.969  -1.136  0.00  0.00    +0.000 A 
ATOM      6  O   UNL     1      -2.057   1.631  -1.217  0.00  0.00    +0.000 OA
ATOM      7  N   UNL     1      -0.335   2.775  -2.063  0.00  0.00    +0.000 N 
ATOM      8  C   UNL     1       0.945   3.158  -1.988  0.00  0.00    +0.000 A 
ATOM      9  O   UNL     1       1.367   3.884  -2.865  0.00  0.00    +0.000 OA
ATOM     10  N   UNL     1       1.793   2.798  -1.018  0.00  0.00    +0.000 N 
ATOM     11  C   UNL     1       1.417   1.994  -0.001  0.00  0.00    +0.000 A 
ATOM     12  O   UNL     1       2.196   1.678   0.872  0.00  0.00    +0.000 OA
ATOM     13  C   UNL     1       3.172   3.292  -1.061  0.00  0.00    +0.000 C 
ATOM     14  C   UNL     1      -1.153   3.245  -3.184  0.00  0.00    +0.000 C 
ENDBRANCH   3   4
BRANCH   3  15
ATOM     15  N   UNL     1       0.633  -0.646  -1.104  0.00  0.00    +0.000 NA
ATOM     16  H   UNL     1       0.168  -0.340  -1.970  0.00  0.00    +0.000 HD
ATOM     17  H   UNL     1       1.611  -0.325  -1.157  0.00  0.00    +0.000 HD
BRANCH  15  18
ATOM     18  C   UNL     1       0.623  -2.150  -1.057  0.00  0.00    +0.000 C 
BRANCH  18  19
ATOM     19  C   UNL     1       1.339  -2.643  -2.316  0.00  0.00    +0.000 C 
BRANCH  19  20
ATOM     20  C   UNL     1       1.360  -4.173  -2.325  0.00  0.00    +0.000 C 
BRANCH  20  23
ATOM     21  C   UNL     1       2.297  -6.093  -3.464  0.00  0.00    +0.000 C 
ATOM     22  C   UNL     1       1.287  -4.301  -4.741  0.00  0.00    +0.000 C 
ATOM     23  N   UNL     1       2.073  -4.633  -3.535  0.00  0.00    +0.000 N 
ATOM     24  H   UNL     1       2.984  -4.157  -3.587  0.00  0.00    +0.000 HD
ENDBRANCH  20  23
ENDBRANCH  19  20
ENDBRANCH  18  19
ENDBRANCH  15  18
ENDBRANCH   3  15
TORSDOF 6
ENDMDL
MODEL      782
REMARK  Name = ZINC04802568
REMARK  12 active torsions:
REMARK  status: ('A' for Active; 'I' for Inactive)
REMARK    1  A    between atoms: C_1  and  C_2
REMARK    2  A    between atoms: C_2  and  C_19
REMARK    3  A    between atoms: C_5  and  C_12
REMARK    4  A    between atoms: C_7  and  O_10
REMARK    5  A    between atoms: O_10  and  C_11
REMARK    6  A    between atoms: C_12  and  N_20
REMARK    7  A    between atoms: C_13  and  C_14
REMARK    8  A    between atoms: C_13  and  N_20
REMARK    9  A    between atoms: C_14  and  O_15
REMARK   10  A    between atoms: C_16  and  C_17
REMARK   11  A    between atoms: C_16  and  N_20
REMARK   12  A    between atoms: C_17  and  O_18
REMARK                            x       y       z     vdW  Elec       q    Type
REMARK                         _______ _______ _______ _____ _____    ______ ____
ROOT
ATOM      1  C   UNL     1      -1.824   2.465   2.656  0.00  0.00    +0.000 C 
ATOM      2  C   UNL     1      -0.630   2.863   1.786  0.00  0.00    +0.000 C 
ATOM      3  O   UNL     1       0.600   2.475   2.423  0.00  0.00    +0.000 OA
ATOM      4  C   UNL     1       0.913   1.150   1.960  0.00  0.00    +0.000 C 
ATOM      5  C   UNL     1       2.232   1.195   1.167  0.00  0.00    +0.000 C 
ATOM      6  O   UNL     1       1.890   1.091  -0.227  0.00  0.00    +0.000 OA
ATOM      7  C   UNL     1       0.682   0.302  -0.293  0.00  0.00    +0.000 C 
ATOM      8  C   UNL     1      -0.168   0.835   0.885  0.00  0.00    +0.000 C 
ATOM      9  O   UNL     1      -0.665   2.146   0.533  0.00  0.00    +0.000 OA
ATOM     10  C   UNL     1      -0.641   4.372   1.532  0.00  0.00    +0.000 C 
ENDROOT
BRANCH   7  11
ATOM     11  O   UNL     1       0.011   0.516  -1.537  0.00  0.00    +0.000 OA
ATOM     12  C   UNL     1       0.649  -0.105  -2.655  0.00  0.00    +0.000 C 
ENDBRANCH   7  11
BRANCH   5  13
ATOM     13  C   UNL     1       2.954   2.518   1.428  0.00  0.00    +0.000 C 
BRANCH  13  14
ATOM     14  N   UNL     1       4.262   2.488   0.742  0.00  0.00    +0.000 N 
ATOM     15  H   UNL     1       4.678   1.552   0.855  0.00  0.00    +0.000 HD
BRANCH  14  16
ATOM     16  C   UNL     1       4.083   2.763  -0.700  0.00  0.00    +0.000 C 
BRANCH  16  17
ATOM     17  C   UNL     1       3.436   4.133  -0.908  0.00  0.00    +0.000 C 
BRANCH  17  18
ATOM     18  O   UNL     1       4.381   5.159  -0.597  0.00  0.00    +0.000 OA
ATOM     19  H   UNL     1       5.169   5.073  -1.189  0.00  0.00    +0.000 HD
ENDBRANCH  17  18
ENDBRANCH  16  17
ENDBRANCH  14  16
BRANCH  14  20
ATOM     20  C   UNL     1       5.169   3.491   1.338  0.00  0.00    +0.000 C 
BRANCH  20  21
ATOM     21  C   UNL     1       6.594   3.216   0.853  0.00  0.00    +0.000 C 
BRANCH  21  22
ATOM     22  O   UNL     1       6.684   3.500  -0.545  0.00  0.00    +0.000 OA
ATOM     23  H   UNL     1       6.459   4.450  -0.706  0.00  0.00    +0.000 HD
ENDBRANCH  21  22
ENDBRANCH  20  21
ENDBRANCH  14  20
ENDBRANCH  13  14
ENDBRANCH   5  13
TORSDOF 9
ENDMDL
MODEL      783
REMARK  Name = ZINC04226539
REMARK  9 active torsions:
REMARK  status: ('A' for Active; 'I' for Inactive)
REMARK    1  A    between atoms: C_1  and  C_2
REMARK    2  A    between atoms: C_4  and  N_13
REMARK    3  A    between atoms: C_8  and  C_11
REMARK    4  A    between atoms: N_13  and  C_14
REMARK    5  A    between atoms: C_14  and  C_15
REMARK    6  A    between atoms: C_15  and  O_16
REMARK    7  A    between atoms: O_16  and  C_17
REMARK    8  A    between atoms: C_17  and  C_18
REMARK    9  A    between atoms: C_18  and  O_19
REMARK                            x       y       z     vdW  Elec       q    Type
REMARK                         _______ _______ _______ _____ _____    ______ ____
ROOT
ATOM      1  C   UNL     1      -2.919   3.367   5.540  0.00  0.00    +0.000 C 
ATOM      2  C   UNL     1      -3.368   2.424   4.455  0.00  0.00    +0.000 A 
ATOM      3  C   UNL     1      -2.502   2.139   3.406  0.00  0.00    +0.000 A 
ATOM      4  C   UNL     1      -2.903   1.277   2.399  0.00  0.00    +0.000 A 
ATOM      5  C   UNL     1      -4.196   0.707   2.490  0.00  0.00    +0.000 A 
ATOM      6  C   UNL     1      -4.668  -0.180   1.510  0.00  0.00    +0.000 A 
ATOM      7  C   UNL     1      -5.914  -0.713   1.619  0.00  0.00    +0.000 A 
ATOM      8  C   UNL     1      -6.740  -0.388   2.708  0.00  0.00    +0.000 A 
ATOM      9  C   UNL     1      -6.300   0.484   3.690  0.00  0.00    +0.000 A 
ATOM     10  C   UNL     1      -5.016   1.045   3.593  0.00  0.00    +0.000 A 
ATOM     11  N   UNL     1      -4.611   1.908   4.590  0.00  0.00    +0.000 N 
ATOM     12  H   UNL     1      -5.218   2.146   5.387  0.00  0.00    +0.000 HD
ENDROOT
BRANCH   8  13
ATOM     13  C   UNL     1      -8.090  -0.981   2.807  0.00  0.00    +0.000 C 
ATOM     14  O   UNL     1      -8.809  -0.703   3.746  0.00  0.00    +0.000 OA
ATOM     15  O   UNL     1      -8.524  -1.829   1.854  0.00  0.00    +0.000 OA
ENDBRANCH   8  13
BRANCH   4  16
ATOM     16  N   UNL     1      -2.062   0.977   1.338  0.00  0.00    +0.000 N 
ATOM     17  H   UNL     1      -2.375   0.330   0.600  0.00  0.00    +0.000 HD
BRANCH  16  18
ATOM     18  C   UNL     1      -0.729   1.579   1.267  0.00  0.00    +0.000 C 
BRANCH  18  19
ATOM     19  C   UNL     1      -0.013   1.086   0.008  0.00  0.00    +0.000 C 
BRANCH  19  20
ATOM     20  O   UNL     1      -0.704   1.559  -1.150  0.00  0.00    +0.000 OA
BRANCH  20  21
ATOM     21  C   UNL     1      -0.114   1.152  -2.386  0.00  0.00    +0.000 C 
BRANCH  21  22
ATOM     22  C   UNL     1      -0.932   1.713  -3.551  0.00  0.00    +0.000 C 
BRANCH  22  23
ATOM     23  O   UNL     1      -0.853   3.140  -3.545  0.00  0.00    +0.000 OA
ATOM     24  H   UNL     1       0.092   3.419  -3.642  0.00  0.00    +0.000 HD
ENDBRANCH  22  23
ENDBRANCH  21  22
ENDBRANCH  20  21
ENDBRANCH  19  20
ENDBRANCH  18  19
ENDBRANCH  16  18
ENDBRANCH   4  16
TORSDOF 8
ENDMDL
MODEL      784
REMARK  Name = ZINC05789170
REMARK  11 active torsions:
REMARK  status: ('A' for Active; 'I' for Inactive)
REMARK    1  A    between atoms: C_1  and  C_2
REMARK    2  A    between atoms: C_3  and  C_4
REMARK    3  A    between atoms: C_3  and  N_22
REMARK    4  A    between atoms: N_10  and  C_13
REMARK    5  A    between atoms: C_13  and  C_14
REMARK    6  A    between atoms: C_16  and  C_17
REMARK    7  A    between atoms: C_16  and  N_22
REMARK    8  A    between atoms: C_17  and  N_18
REMARK    9  A    between atoms: N_18  and  C_19
REMARK   10  A    between atoms: N_18  and  C_20
REMARK   11  A    between atoms: N_18  and  C_21
REMARK                            x       y       z     vdW  Elec       q    Type
REMARK                         _______ _______ _______ _____ _____    ______ ____
ROOT
ATOM      1  C   UNL     1       0.002  -0.004   0.002  0.00  0.00    +0.000 A 
ATOM      2  C   UNL     1      -0.018   1.513   0.010  0.00  0.00    +0.000 A 
ATOM      3  O   UNL     1      -1.063   2.127   0.019  0.00  0.00    +0.000 OA
ATOM      4  N   UNL     1       1.170   2.153   0.003  0.00  0.00    +0.000 N 
ATOM      5  C   UNL     1       2.332   1.490  -0.012  0.00  0.00    +0.000 A 
ATOM      6  O   UNL     1       3.354   2.145  -0.018  0.00  0.00    +0.000 OA
ATOM      7  N   UNL     1       2.450   0.157  -0.021  0.00  0.00    +0.000 N 
ATOM      8  C   UNL     1       1.372  -0.656  -0.015  0.00  0.00    +0.000 A 
ATOM      9  O   UNL     1       1.494  -1.862  -0.023  0.00  0.00    +0.000 OA
ATOM     10  H   UNL     1       1.183   3.183   0.008  0.00  0.00    +0.000 HD
ENDROOT
BRANCH   1  13
ATOM     11  C   UNL     1      -2.288  -1.637  -0.282  0.00  0.00    +0.000 C 
ATOM     12  C   UNL     1      -1.803  -1.252   1.091  0.00  0.00    +0.000 C 
ATOM     13  C   UNL     1      -0.734  -0.490   1.224  0.00  0.00    +0.000 C 
BRANCH  13  14
ATOM     14  N   UNL     1      -0.227  -0.093   2.497  0.00  0.00    +0.000 NA
ATOM     15  H   UNL     1       0.748  -0.415   2.577  0.00  0.00    +0.000 HD
ATOM     16  H   UNL     1      -0.209   0.936   2.537  0.00  0.00    +0.000 HD
BRANCH  14  17
ATOM     17  C   UNL     1      -1.002  -0.607   3.679  0.00  0.00    +0.000 C 
BRANCH  17  18
ATOM     18  C   UNL     1      -0.308  -0.078   4.936  0.00  0.00    +0.000 C 
BRANCH  18  19
ATOM     19  N   UNL     1      -1.025  -0.551   6.127  0.00  0.00    +0.000 N 
ATOM     20  C   UNL     1      -1.023  -2.020   6.149  0.00  0.00    +0.000 C 
ATOM     21  C   UNL     1      -0.359  -0.043   7.334  0.00  0.00    +0.000 C 
ATOM     22  C   UNL     1      -2.410  -0.064   6.091  0.00  0.00    +0.000 C 
ENDBRANCH  18  19
ENDBRANCH  17  18
ENDBRANCH  14  17
ENDBRANCH  13  14
ENDBRANCH   1  13
BRANCH   7  23
ATOM     23  C   UNL     1       3.788  -0.438  -0.036  0.00  0.00    +0.000 C 
BRANCH  23  24
ATOM     24  C   UNL     1       4.234  -0.634  -1.463  0.00  0.00    +0.000 C 
ATOM     25  C   UNL     1       5.367  -0.121  -1.871  0.00  0.00    +0.000 C 
ENDBRANCH  23  24
ENDBRANCH   7  23
TORSDOF 7
ENDMDL
MODEL      785
REMARK  Name = ZINC22039315
REMARK  10 active torsions:
REMARK  status: ('A' for Active; 'I' for Inactive)
REMARK    1  A    between atoms: C_1  and  C_2
REMARK    2  A    between atoms: C_2  and  N_3
REMARK    3  A    between atoms: N_3  and  C_4
REMARK    4  A    between atoms: N_3  and  C_6
REMARK    5  A    between atoms: C_4  and  C_5
REMARK    6  A    between atoms: C_6  and  C_7
REMARK    7  A    between atoms: C_7  and  N_8
REMARK    8  A    between atoms: C_11  and  C_20
REMARK    9  A    between atoms: C_12  and  C_17
REMARK   10  A    between atoms: C_13  and  C_14
REMARK                            x       y       z     vdW  Elec       q    Type
REMARK                         _______ _______ _______ _____ _____    ______ ____
ROOT
ATOM      1  N   UNL     1       1.583   0.999   1.710  0.00  0.00    +0.000 N 
ATOM      2  C   UNL     1       1.964  -0.329   1.855  0.00  0.00    +0.000 C 
ATOM      3  C   UNL     1       1.214  -1.315   1.426  0.00  0.00    +0.000 C 
ATOM      4  C   UNL     1      -0.104  -1.098   0.739  0.00  0.00    +0.000 C 
ATOM      5  C   UNL     1      -0.646   0.297   1.058  0.00  0.00    +0.000 C 
ATOM      6  C   UNL     1       0.468   1.323   0.809  0.00  0.00    +0.000 C 
ATOM      7  C   UNL     1      -1.104  -2.152   1.218  0.00  0.00    +0.000 C 
ENDROOT
BRANCH   6   8
ATOM      8  C   UNL     1       0.928   1.240  -0.624  0.00  0.00    +0.000 C 
ATOM      9  O   UNL     1       0.412   1.941  -1.468  0.00  0.00    +0.000 OA
ATOM     10  N   UNL     1       1.913   0.387  -0.967  0.00  0.00    +0.000 N 
ATOM     11  H   UNL     1       2.352  -0.208  -0.249  0.00  0.00    +0.000 HD
ATOM     12  H   UNL     1       2.228   0.330  -1.946  0.00  0.00    +0.000 HD
ENDBRANCH   6   8
BRANCH   5  13
ATOM     13  C   UNL     1      -1.822   0.599   0.165  0.00  0.00    +0.000 C 
ATOM     14  O   UNL     1      -1.793   1.560  -0.567  0.00  0.00    +0.000 OA
ATOM     15  O   UNL     1      -2.901  -0.199   0.183  0.00  0.00    +0.000 OA
ENDBRANCH   5  13
BRANCH   1  16
ATOM     16  C   UNL     1       2.281   2.058   2.442  0.00  0.00    +0.000 C 
BRANCH  16  17
ATOM     17  C   UNL     1       3.452   2.573   1.602  0.00  0.00    +0.000 C 
BRANCH  17  18
ATOM     18  N   UNL     1       4.152   3.636   2.336  0.00  0.00    +0.000 N 
ATOM     19  H   UNL     1       4.378   3.276   3.274  0.00  0.00    +0.000 HD
BRANCH  18  21
ATOM     20  C   UNL     1       6.463   2.916   1.964  0.00  0.00    +0.000 C 
ATOM     21  C   UNL     1       5.413   3.990   1.673  0.00  0.00    +0.000 C 
ENDBRANCH  18  21
BRANCH  18  22
ATOM     22  C   UNL     1       3.293   4.816   2.500  0.00  0.00    +0.000 C 
ATOM     23  C   UNL     1       3.892   5.739   3.563  0.00  0.00    +0.000 C 
ENDBRANCH  18  22
ENDBRANCH  17  18
ENDBRANCH  16  17
ENDBRANCH   1  16
TORSDOF 7
ENDMDL
MODEL      786
REMARK  Name = ZINC06382410
REMARK  9 active torsions:
REMARK  status: ('A' for Active; 'I' for Inactive)
REMARK    1  A    between atoms: C_1  and  C_2
REMARK    2  A    between atoms: C_2  and  N_19
REMARK    3  A    between atoms: C_3  and  C_4
REMARK    4  A    between atoms: C_3  and  N_19
REMARK    5  A    between atoms: C_5  and  C_6
REMARK    6  A    between atoms: C_5  and  N_19
REMARK    7  A    between atoms: C_6  and  C_7
REMARK    8  A    between atoms: C_6  and  O_18
REMARK    9  A    between atoms: C_7  and  N_8
REMARK                            x       y       z     vdW  Elec       q    Type
REMARK                         _______ _______ _______ _____ _____    ______ ____
ROOT
ATOM      1  C   UNL     1       0.362   4.135   2.397  0.00  0.00    +0.000 C 
ENDROOT
BRANCH   1   2
ATOM      2  N   UNL     1      -0.342   3.467   1.300  0.00  0.00    +0.000 N 
ATOM      3  C   UNL     1       0.213   2.398   0.694  0.00  0.00    +0.000 C 
ATOM      4  N   UNL     1       1.391   1.932   1.067  0.00  0.00    +0.000 NA
ATOM      5  C   UNL     1       1.962   0.856   0.536  0.00  0.00    +0.000 C 
ATOM      6  N   UNL     1       1.279  -0.032  -0.179  0.00  0.00    +0.000 NA
ATOM      7  C   UNL     1      -0.014   0.233  -0.349  0.00  0.00    +0.000 C 
ATOM      8  N   UNL     1      -1.095  -0.471  -0.467  0.00  0.00    +0.000 NA
ATOM      9  C   UNL     1      -2.191   0.283  -0.304  0.00  0.00    +0.000 C 
ATOM     10  N   UNL     1      -1.930   1.559  -0.246  0.00  0.00    +0.000 NA
ATOM     11  C   UNL     1      -0.486   1.688  -0.437  0.00  0.00    +0.000 C 
ATOM     12  H   UNL     1      -1.262   3.813   0.993  0.00  0.00    +0.000 HD
ENDBRANCH   1   2
BRANCH   1  13
ATOM     13  C   UNL     1      -0.479   5.308   2.905  0.00  0.00    +0.000 C 
BRANCH  13  14
ATOM     14  O   UNL     1      -1.689   4.811   3.480  0.00  0.00    +0.000 OA
ATOM     15  H   UNL     1      -2.235   5.570   3.808  0.00  0.00    +0.000 HD
ENDBRANCH  13  14
BRANCH  13  16
ATOM     16  C   UNL     1       0.310   6.080   3.964  0.00  0.00    +0.000 C 
BRANCH  16  17
ATOM     17  N   UNL     1      -0.524   7.196   4.459  0.00  0.00    +0.000 N 
ATOM     18  H   UNL     1      -1.443   6.827   4.743  0.00  0.00    +0.000 HD
BRANCH  17  19
ATOM     19  C   UNL     1      -0.718   8.196   3.388  0.00  0.00    +0.000 C 
ATOM     20  C   UNL     1      -1.862   9.129   3.788  0.00  0.00    +0.000 C 
ENDBRANCH  17  19
BRANCH  17  22
ATOM     21  C   UNL     1      -0.107   6.940   6.854  0.00  0.00    +0.000 C 
ATOM     22  C   UNL     1       0.122   7.828   5.629  0.00  0.00    +0.000 C 
ENDBRANCH  17  22
ENDBRANCH  16  17
ENDBRANCH  13  16
ENDBRANCH   1  13
TORSDOF 7
ENDMDL
MODEL      787
REMARK  Name = ZINC20023842
REMARK  10 active torsions:
REMARK  status: ('A' for Active; 'I' for Inactive)
REMARK    1  A    between atoms: C_1  and  C_2
REMARK    2  A    between atoms: C_2  and  C_3
REMARK    3  A    between atoms: C_3  and  C_4
REMARK    4  A    between atoms: C_4  and  N_5
REMARK    5  A    between atoms: C_9  and  N_10
REMARK    6  A    between atoms: N_10  and  C_11
REMARK    7  A    between atoms: C_11  and  C_12
REMARK    8  A    between atoms: C_12  and  N_13
REMARK    9  A    between atoms: N_13  and  C_14
REMARK   10  A    between atoms: N_13  and  C_15
REMARK                            x       y       z     vdW  Elec       q    Type
REMARK                         _______ _______ _______ _____ _____    ______ ____
ROOT
ATOM      1  N   UNL     1      -0.437   1.368   3.959  0.00  0.00    +0.000 N 
ATOM      2  C   UNL     1      -0.226   2.638   4.361  0.00  0.00    +0.000 C 
ATOM      3  O   UNL     1       0.479   3.390   3.714  0.00  0.00    +0.000 OA
ATOM      4  C   UNL     1      -0.876   3.093   5.603  0.00  0.00    +0.000 C 
ATOM      5  C   UNL     1      -0.709   4.382   6.075  0.00  0.00    +0.000 C 
ATOM      6  C   UNL     1      -1.706   2.111   6.324  0.00  0.00    +0.000 C 
ATOM      7  O   UNL     1      -2.272   2.411   7.358  0.00  0.00    +0.000 OA
ATOM      8  N   UNL     1      -1.823   0.872   5.805  0.00  0.00    +0.000 N 
ATOM      9  C   UNL     1      -1.206   0.528   4.665  0.00  0.00    +0.000 C 
ATOM     10  O   UNL     1      -1.353  -0.605   4.250  0.00  0.00    +0.000 OA
ATOM     11  H   UNL     1      -2.399   0.173   6.295  0.00  0.00    +0.000 HD
ENDROOT
BRANCH   5  12
ATOM     12  N   UNL     1      -1.439   4.816   7.122  0.00  0.00    +0.000 N 
ATOM     13  H   UNL     1      -2.179   4.218   7.517  0.00  0.00    +0.000 HD
BRANCH  12  14
ATOM     14  C   UNL     1      -1.178   6.137   7.699  0.00  0.00    +0.000 C 
BRANCH  14  15
ATOM     15  C   UNL     1      -2.137   6.382   8.866  0.00  0.00    +0.000 C 
BRANCH  15  16
ATOM     16  N   UNL     1      -1.876   7.707   9.444  0.00  0.00    +0.000 N 
ATOM     17  C   UNL     1      -2.923   8.077  10.406  0.00  0.00    +0.000 C 
ATOM     18  C   UNL     1      -0.547   7.756  10.068  0.00  0.00    +0.000 C 
ATOM     19  H   UNL     1      -1.892   8.395   8.678  0.00  0.00    +0.000 HD
ENDBRANCH  15  16
ENDBRANCH  14  15
ENDBRANCH  12  14
ENDBRANCH   5  12
BRANCH   1  20
ATOM     20  C   UNL     1       0.194   0.894   2.724  0.00  0.00    +0.000 C 
BRANCH  20  21
ATOM     21  C   UNL     1      -0.742   1.154   1.541  0.00  0.00    +0.000 C 
BRANCH  21  23
ATOM     22  C   UNL     1      -1.019   0.919  -0.930  0.00  0.00    +0.000 C 
ATOM     23  C   UNL     1      -0.083   0.659   0.252  0.00  0.00    +0.000 C 
ENDBRANCH  21  23
ENDBRANCH  20  21
ENDBRANCH   1  20
TORSDOF 7
ENDMDL
MODEL      788
REMARK  Name = ZINC05434281
REMARK  8 active torsions:
REMARK  status: ('A' for Active; 'I' for Inactive)
REMARK    1  A    between atoms: C_1  and  C_2
REMARK    2  A    between atoms: C_2  and  O_4
REMARK    3  A    between atoms: O_4  and  C_5
REMARK    4  A    between atoms: C_5  and  C_6
REMARK    5  A    between atoms: C_5  and  C_10
REMARK    6  A    between atoms: C_6  and  N_14
REMARK    7  A    between atoms: C_7  and  C_8
REMARK    8  A    between atoms: C_7  and  N_14
REMARK                            x       y       z     vdW  Elec       q    Type
REMARK                         _______ _______ _______ _____ _____    ______ ____
ROOT
ATOM      1  C   UNL     1      -1.056  -2.140   0.001  0.00  0.00    +0.000 C 
ENDROOT
BRANCH   1   2
ATOM      2  C   UNL     1      -1.008  -2.656   1.440  0.00  0.00    +0.000 C 
ATOM      3 CL   UNL     1      -2.509  -2.158   2.307  0.00  0.00    +0.000 Cl
ATOM      4 CL   UNL     1      -0.889  -4.455   1.429  0.00  0.00    +0.000 Cl
ATOM      5 CL   UNL     1       0.429  -1.964   2.280  0.00  0.00    +0.000 Cl
ENDBRANCH   1   2
BRANCH   1   6
ATOM      6  C   UNL     1      -2.275  -2.727  -0.712  0.00  0.00    +0.000 C 
BRANCH   6   7
ATOM      7  N   UNL     1      -2.248  -2.322  -2.130  0.00  0.00    +0.000 N 
ATOM      8  H   UNL     1      -2.267  -1.294  -2.192  0.00  0.00    +0.000 HD
ATOM      9  H   UNL     1      -1.384  -2.670  -2.569  0.00  0.00    +0.000 HD
BRANCH   7  10
ATOM     10  C   UNL     1      -3.415  -2.875  -2.843  0.00  0.00    +0.000 C 
BRANCH  10  11
ATOM     11  C   UNL     1      -3.361  -2.445  -4.287  0.00  0.00    +0.000 C 
ATOM     12  O   UNL     1      -2.450  -1.754  -4.678  0.00  0.00    +0.000 OA
ATOM     13  O   UNL     1      -4.324  -2.830  -5.138  0.00  0.00    +0.000 OA
ENDBRANCH  10  11
ENDBRANCH   7  10
ENDBRANCH   6   7
ENDBRANCH   1   6
BRANCH   1  14
ATOM     14  O   UNL     1      -1.151  -0.691   0.009  0.00  0.00    +0.000 OA
BRANCH  14  16
ATOM     15  C   UNL     1      -0.018   1.503   0.010  0.00  0.00    +0.000 C 
ATOM     16  C   UNL     1       0.002  -0.004   0.002  0.00  0.00    +0.000 C 
ATOM     17  O   UNL     1       1.056  -0.594  -0.011  0.00  0.00    +0.000 OA
ENDBRANCH  14  16
ENDBRANCH   1  14
TORSDOF 7
ENDMDL
MODEL      789
REMARK  Name = ZINC26174885
REMARK  9 active torsions:
REMARK  status: ('A' for Active; 'I' for Inactive)
REMARK    1  A    between atoms: C_1  and  C_2
REMARK    2  A    between atoms: C_2  and  N_3
REMARK    3  A    between atoms: C_4  and  C_6
REMARK    4  A    between atoms: C_6  and  C_7
REMARK    5  A    between atoms: C_7  and  N_8
REMARK    6  A    between atoms: C_13  and  C_14
REMARK    7  A    between atoms: C_14  and  N_15
REMARK    8  A    between atoms: N_15  and  S_16
REMARK    9  A    between atoms: S_16  and  C_19
REMARK                            x       y       z     vdW  Elec       q    Type
REMARK                         _______ _______ _______ _____ _____    ______ ____
ROOT
ATOM      1  N   UNL     1       5.239   1.061  -0.016  0.00  0.00    +0.000 N 
ATOM      2  C   UNL     1       5.339  -0.086  -0.927  0.00  0.00    +0.000 C 
ATOM      3  C   UNL     1       6.756  -0.661  -0.871  0.00  0.00    +0.000 C 
ATOM      4  C   UNL     1       7.758   0.423  -1.274  0.00  0.00    +0.000 C 
ATOM      5  C   UNL     1       7.600   1.626  -0.340  0.00  0.00    +0.000 C 
ATOM      6  C   UNL     1       6.159   2.135  -0.412  0.00  0.00    +0.000 C 
ATOM      7  H   UNL     1       5.514   0.741   0.923  0.00  0.00    +0.000 HD
ENDROOT
BRANCH   1   8
ATOM      8  C   UNL     1       3.857   1.553   0.060  0.00  0.00    +0.000 C 
BRANCH   8   9
ATOM      9  C   UNL     1       2.916   0.387   0.371  0.00  0.00    +0.000 C 
BRANCH   9  11
ATOM     10  N   UNL     1       0.492   0.035   0.714  0.00  0.00    +0.000 N 
ATOM     11  C   UNL     1       1.498   0.892   0.449  0.00  0.00    +0.000 C 
ATOM     12  O   UNL     1       1.263   2.069   0.275  0.00  0.00    +0.000 OA
ATOM     13  H   UNL     1       0.692  -0.963   0.867  0.00  0.00    +0.000 HD
BRANCH  10  15
ATOM     14  C   UNL     1      -1.828  -0.642   1.089  0.00  0.00    +0.000 C 
ATOM     15  C   UNL     1      -0.887   0.525   0.784  0.00  0.00    +0.000 C 
ENDBRANCH  10  15
ENDBRANCH   9  11
ENDBRANCH   8   9
ENDBRANCH   1   8
BRANCH   6  16
ATOM     16  C   UNL     1       5.990   3.325   0.536  0.00  0.00    +0.000 C 
BRANCH  16  17
ATOM     17  N   UNL     1       6.160   2.875   1.920  0.00  0.00    +0.000 NA
ATOM     18  H   UNL     1       6.105   1.871   2.145  0.00  0.00    +0.000 HD
BRANCH  17  19
ATOM     19  S   UNL     1       6.441   3.979   3.121  0.00  0.00    +0.000 S 
ATOM     20  O   UNL     1       6.576   3.203   4.303  0.00  0.00    +0.000 OA
ATOM     21  O   UNL     1       7.523   4.767   2.644  0.00  0.00    +0.000 OA
ATOM     22  C   UNL     1       4.928   4.978   3.199  0.00  0.00    +0.000 C 
ENDBRANCH  17  19
ENDBRANCH  16  17
ENDBRANCH   6  16
TORSDOF 7
ENDMDL
MODEL      790
REMARK  Name = ZINC05258848
REMARK  7 active torsions:
REMARK  status: ('A' for Active; 'I' for Inactive)
REMARK    1  A    between atoms: C_2  and  C_3
REMARK    2  A    between atoms: C_3  and  N_17
REMARK    3  A    between atoms: CA_4  and  C_5
REMARK    4  A    between atoms: CA_4  and  C_15
REMARK    5  A    between atoms: CA_4  and  N_17
REMARK    6  A    between atoms: C_5  and  C_6
REMARK    7  A    between atoms: N_8  and  C_9
REMARK                            x       y       z     vdW  Elec       q    Type
REMARK                         _______ _______ _______ _____ _____    ______ ____
ROOT
ATOM      1  C   UNL     1      -3.618   6.015   0.282  0.00  0.00    +0.000 C 
ENDROOT
BRANCH   1   2
ATOM      2  C   UNL     1      -2.337   5.231   0.152  0.00  0.00    +0.000 C 
ATOM      3  O   UNL     1      -1.271   5.809   0.145  0.00  0.00    +0.000 OA
ATOM      4  N   UNL     1      -2.377   3.888   0.045  0.00  0.00    +0.000 N 
ATOM      5  H   UNL     1      -3.283   3.404  -0.031  0.00  0.00    +0.000 HD
BRANCH   4   6
ATOM      6  C   UNL     1      -1.187   3.152   0.035  0.00  0.00    +0.000 A 
ATOM      7  C   UNL     1      -0.083   3.583   0.768  0.00  0.00    +0.000 A 
ATOM      8  C   UNL     1       1.074   2.823   0.723  0.00  0.00    +0.000 A 
ATOM      9  C   UNL     1       1.092   1.665  -0.032  0.00  0.00    +0.000 A 
ATOM     10  N   UNL     1       0.029   1.282  -0.711  0.00  0.00    +0.000 NA
ATOM     11  C   UNL     1      -1.091   1.978  -0.700  0.00  0.00    +0.000 A 
ENDBRANCH   4   6
ENDBRANCH   1   2
BRANCH   1  12
ATOM     12  CA  UNL     1      -3.295   7.506   0.387  0.00  0.00    +0.000 C 
BRANCH  12  13
ATOM     13  N   UNL     1      -2.557   7.755   1.640  0.00  0.00    +0.000 N 
ATOM     14  H1  UNL     1      -3.228   7.871   2.413  0.00  0.00    +0.000 HD
ATOM     15  H2  UNL     1      -1.947   6.950   1.841  0.00  0.00    +0.000 HD
BRANCH  13  16
ATOM     16  C   UNL     1      -1.734   8.973   1.517  0.00  0.00    +0.000 C 
BRANCH  16  18
ATOM     17  C   UNL     1       0.311   9.324   2.803  0.00  0.00    +0.000 C 
ATOM     18  C   UNL     1      -0.993   9.201   2.809  0.00  0.00    +0.000 C 
ENDBRANCH  16  18
ENDBRANCH  13  16
ENDBRANCH  12  13
BRANCH  12  19
ATOM     19  C   UNL     1      -4.577   8.299   0.393  0.00  0.00    +0.000 C 
ATOM     20  O   UNL     1      -4.848   9.003   1.337  0.00  0.00    +0.000 OA
ATOM     21  OXT UNL     1      -5.418   8.222  -0.650  0.00  0.00    +0.000 OA
ENDBRANCH  12  19
ENDBRANCH   1  12
TORSDOF 7
ENDMDL
MODEL      791
REMARK  Name = ZINC03876857
REMARK  9 active torsions:
REMARK  status: ('A' for Active; 'I' for Inactive)
REMARK    1  A    between atoms: C_1  and  C_2
REMARK    2  A    between atoms: C_2  and  N_19
REMARK    3  A    between atoms: C_3  and  C_4
REMARK    4  A    between atoms: C_3  and  N_19
REMARK    5  A    between atoms: C_5  and  C_6
REMARK    6  A    between atoms: C_5  and  N_19
REMARK    7  A    between atoms: C_6  and  C_7
REMARK    8  A    between atoms: C_7  and  N_8
REMARK    9  A    between atoms: C_9  and  C_10
REMARK                            x       y       z     vdW  Elec       q    Type
REMARK                         _______ _______ _______ _____ _____    ______ ____
ROOT
ATOM      1  N   UNL     1      -1.215   6.010  -0.035  0.00  0.00    +0.000 NA
ATOM      2  C   UNL     1      -0.038   5.358   0.056  0.00  0.00    +0.000 C 
ENDROOT
BRANCH   2   3
ATOM      3  C   UNL     1      -0.012   3.975   0.054  0.00  0.00    +0.000 C 
ATOM      4  C   UNL     1       1.259   3.230   0.014  0.00  0.00    +0.000 C 
ATOM      5  O   UNL     1       2.325   3.815  -0.017  0.00  0.00    +0.000 OA
ATOM      6  N   UNL     1       1.208   1.882   0.013  0.00  0.00    +0.000 N 
ATOM      7  C   UNL     1       0.040   1.225   0.047  0.00  0.00    +0.000 C 
ATOM      8  O   UNL     1       0.063   0.010   0.044  0.00  0.00    +0.000 OA
ATOM      9  N   UNL     1      -1.152   1.837   0.079  0.00  0.00    +0.000 N 
ATOM     10  C   UNL     1      -1.254   3.182   0.089  0.00  0.00    +0.000 C 
ATOM     11  O   UNL     1      -2.342   3.726   0.123  0.00  0.00    +0.000 OA
ATOM     12  H   UNL     1       2.087   1.346  -0.014  0.00  0.00    +0.000 HD
ATOM     13  H   UNL     1      -2.010   1.268   0.096  0.00  0.00    +0.000 HD
ENDBRANCH   2   3
BRANCH   1  14
ATOM     14  C   UNL     1      -1.243   7.474  -0.032  0.00  0.00    +0.000 C 
BRANCH  14  15
ATOM     15  C   UNL     1      -2.690   7.957  -0.146  0.00  0.00    +0.000 C 
BRANCH  15  16
ATOM     16  C   UNL     1      -2.719   9.487  -0.143  0.00  0.00    +0.000 C 
BRANCH  16  17
ATOM     17  N   UNL     1      -4.121   9.937  -0.275  0.00  0.00    +0.000 N 
ATOM     18  H   UNL     1      -4.548   9.467  -1.086  0.00  0.00    +0.000 HD
BRANCH  17  19
ATOM     19  C   UNL     1      -4.163  11.399  -0.491  0.00  0.00    +0.000 C 
ATOM     20  C   UNL     1      -5.565  11.785  -0.967  0.00  0.00    +0.000 C 
ENDBRANCH  17  19
BRANCH  17  22
ATOM     21  C   UNL     1      -4.317  10.318   2.159  0.00  0.00    +0.000 C 
ATOM     22  C   UNL     1      -4.882   9.584   0.942  0.00  0.00    +0.000 C 
ENDBRANCH  17  22
ENDBRANCH  16  17
ENDBRANCH  15  16
ENDBRANCH  14  15
ENDBRANCH   1  14
TORSDOF 7
ENDMDL
MODEL      792
REMARK  Name = ZINC20399521
REMARK  10 active torsions:
REMARK  status: ('A' for Active; 'I' for Inactive)
REMARK    1  A    between atoms: C_1  and  N_2
REMARK    2  A    between atoms: N_2  and  C_3
REMARK    3  A    between atoms: N_2  and  C_4
REMARK    4  A    between atoms: C_8  and  O_10
REMARK    5  A    between atoms: O_10  and  C_11
REMARK    6  A    between atoms: C_11  and  C_12
REMARK    7  A    between atoms: C_12  and  S_13
REMARK    8  A    between atoms: S_13  and  C_16
REMARK    9  A    between atoms: C_16  and  C_17
REMARK   10  A    between atoms: C_17  and  N_18
REMARK                            x       y       z     vdW  Elec       q    Type
REMARK                         _______ _______ _______ _____ _____    ______ ____
ROOT
ATOM      1  C   UNL     1      -2.296  -0.370   0.033  0.00  0.00    +0.000 C 
ENDROOT
BRANCH   1   2
ATOM      2  O   UNL     1      -2.391   1.056   0.044  0.00  0.00    +0.000 OA
BRANCH   2   7
ATOM      3  C   UNL     1      -0.049   3.846   0.021  0.00  0.00    +0.000 A 
ATOM      4  C   UNL     1       1.161   3.163  -0.008  0.00  0.00    +0.000 A 
ATOM      5  C   UNL     1       1.175   1.782  -0.017  0.00  0.00    +0.000 A 
ATOM      6  C   UNL     1      -0.012   1.076   0.004  0.00  0.00    +0.000 A 
ATOM      7  C   UNL     1      -1.224   1.752   0.029  0.00  0.00    +0.000 A 
ATOM      8  C   UNL     1      -1.243   3.138   0.043  0.00  0.00    +0.000 A 
BRANCH   3  10
ATOM      9  C   UNL     1       1.193   5.988   0.133  0.00  0.00    +0.000 C 
ATOM     10  N   UNL     1      -0.064   5.243   0.029  0.00  0.00    +0.000 N 
ATOM     11  C   UNL     1      -1.337   5.962  -0.066  0.00  0.00    +0.000 C 
ENDBRANCH   3  10
ENDBRANCH   2   7
ENDBRANCH   1   2
BRANCH   1  12
ATOM     12  C   UNL     1      -3.701  -0.975   0.052  0.00  0.00    +0.000 C 
BRANCH  12  13
ATOM     13  S   UNL     1      -3.581  -2.785   0.038  0.00  0.00    +0.000 S 
ATOM     14  O   UNL     1      -3.010  -3.188  -1.199  0.00  0.00    +0.000 OA
ATOM     15  O   UNL     1      -2.969  -3.204   1.251  0.00  0.00    +0.000 OA
BRANCH  13  16
ATOM     16  C   UNL     1      -5.319  -3.302   0.064  0.00  0.00    +0.000 C 
BRANCH  16  17
ATOM     17  C   UNL     1      -5.396  -4.830   0.055  0.00  0.00    +0.000 C 
BRANCH  17  18
ATOM     18  N   UNL     1      -6.804  -5.249   0.076  0.00  0.00    +0.000 N 
ATOM     19  H   UNL     1      -7.287  -4.877  -0.755  0.00  0.00    +0.000 HD
ATOM     20  H   UNL     1      -7.259  -4.888   0.927  0.00  0.00    +0.000 HD
ATOM     21  H   UNL     1      -6.857  -6.278   0.070  0.00  0.00    +0.000 HD
ENDBRANCH  17  18
ENDBRANCH  16  17
ENDBRANCH  13  16
ENDBRANCH  12  13
ENDBRANCH   1  12
TORSDOF 8
ENDMDL
MODEL      793
REMARK  Name = ZINC31659431
REMARK  9 active torsions:
REMARK  status: ('A' for Active; 'I' for Inactive)
REMARK    1  A    between atoms: C_1  and  C_2
REMARK    2  A    between atoms: C_2  and  C_3
REMARK    3  A    between atoms: C_3  and  C_4
REMARK    4  A    between atoms: C_4  and  C_5
REMARK    5  A    between atoms: C_5  and  C_14
REMARK    6  A    between atoms: C_14  and  C_15
REMARK    7  A    between atoms: C_15  and  N_16
REMARK    8  A    between atoms: N_16  and  C_17
REMARK    9  A    between atoms: C_17  and  C_18
REMARK                            x       y       z     vdW  Elec       q    Type
REMARK                         _______ _______ _______ _____ _____    ______ ____
ROOT
ATOM      1  C   UNL     1       0.847  -2.039   1.180  0.00  0.00    +0.000 C 
ATOM      2  C   UNL     1       1.546  -2.495  -0.087  0.00  0.00    +0.000 C 
ATOM      3  O   UNL     1       2.683  -2.155  -0.335  0.00  0.00    +0.000 OA
ATOM      4  N   UNL     1       0.862  -3.293  -0.929  0.00  0.00    +0.000 NA
ATOM      5  C   UNL     1      -0.395  -3.677  -0.674  0.00  0.00    +0.000 C 
ATOM      6  O   UNL     1      -0.939  -4.396  -1.488  0.00  0.00    +0.000 OA
ATOM      7  N   UNL     1      -1.095  -3.326   0.411  0.00  0.00    +0.000 N 
ATOM      8  C   UNL     1      -0.575  -2.532   1.371  0.00  0.00    +0.000 C 
ATOM      9  O   UNL     1      -1.222  -2.223   2.349  0.00  0.00    +0.000 OA
ATOM     10  H   UNL     1      -2.058  -3.674   0.517  0.00  0.00    +0.000 HD
ENDROOT
BRANCH   1  11
ATOM     11  C   UNL     1       1.677  -2.507   2.376  0.00  0.00    +0.000 C 
BRANCH  11  12
ATOM     12  C   UNL     1       1.720  -4.037   2.400  0.00  0.00    +0.000 C 
BRANCH  12  14
ATOM     13  C   UNL     1       2.594  -6.034   3.621  0.00  0.00    +0.000 C 
ATOM     14  C   UNL     1       2.551  -4.505   3.597  0.00  0.00    +0.000 C 
ENDBRANCH  12  14
ENDBRANCH  11  12
ENDBRANCH   1  11
BRANCH   1  15
ATOM     15  C   UNL     1       0.826  -0.509   1.188  0.00  0.00    +0.000 C 
BRANCH  15  16
ATOM     16  C   UNL     1       0.002  -0.004   0.002  0.00  0.00    +0.000 C 
BRANCH  16  17
ATOM     17  N   UNL     1      -0.018   1.465   0.010  0.00  0.00    +0.000 N 
ATOM     18  H   UNL     1      -0.433   1.794   0.893  0.00  0.00    +0.000 HD
ATOM     19  H   UNL     1       0.947   1.819  -0.055  0.00  0.00    +0.000 HD
BRANCH  17  20
ATOM     20  C   UNL     1      -0.802   1.987  -1.117  0.00  0.00    +0.000 C 
ATOM     21  C   UNL     1      -0.799   3.516  -1.075  0.00  0.00    +0.000 C 
ENDBRANCH  17  20
ENDBRANCH  16  17
ENDBRANCH  15  16
ENDBRANCH   1  15
TORSDOF 7
ENDMDL
MODEL      794
REMARK  Name = ZINC01535960
REMARK  7 active torsions:
REMARK  status: ('A' for Active; 'I' for Inactive)
REMARK    1  A    between atoms: N_3  and  C_9
REMARK    2  A    between atoms: C_9  and  C_10
REMARK    3  A    between atoms: C_10  and  C_11
REMARK    4  A    between atoms: C_10  and  O_15
REMARK    5  A    between atoms: C_11  and  N_16
REMARK    6  A    between atoms: C_12  and  C_13
REMARK    7  A    between atoms: C_12  and  N_16
REMARK                            x       y       z     vdW  Elec       q    Type
REMARK                         _______ _______ _______ _____ _____    ______ ____
ROOT
ATOM      1  C   UNL     1      -1.556   2.624  -1.413  0.00  0.00    +0.000 C 
ENDROOT
BRANCH   1   2
ATOM      2  O   UNL     1      -0.511   3.441  -1.944  0.00  0.00    +0.000 OA
ATOM      3  H   UNL     1       0.339   2.933  -1.944  0.00  0.00    +0.000 HD
ENDBRANCH   1   2
BRANCH   1   4
ATOM      4  C   UNL     1      -2.869   3.411  -1.415  0.00  0.00    +0.000 C 
BRANCH   4   5
ATOM      5  N   UNL     1      -3.260   3.695  -2.809  0.00  0.00    +0.000 N 
ATOM      6  H   UNL     1      -2.520   4.246  -3.265  0.00  0.00    +0.000 HD
ATOM      7  H   UNL     1      -3.382   2.807  -3.317  0.00  0.00    +0.000 HD
BRANCH   5   8
ATOM      8  C   UNL     1      -4.524   4.453  -2.841  0.00  0.00    +0.000 C 
BRANCH   8   9
ATOM      9  C   UNL     1      -4.904   4.733  -4.297  0.00  0.00    +0.000 C 
ATOM     10 BR   UNL     1      -6.589   5.744  -4.351  0.00  0.00    +0.000 Br
ENDBRANCH   8   9
ENDBRANCH   5   8
ENDBRANCH   4   5
ENDBRANCH   1   4
BRANCH   1  11
ATOM     11  C   UNL     1      -1.207   2.218   0.020  0.00  0.00    +0.000 C 
BRANCH  11  14
ATOM     12  C   UNL     1       1.296  -0.376  -0.012  0.00  0.00    +0.000 A 
ATOM     13  C   UNL     1       0.002  -0.004   0.002  0.00  0.00    +0.000 A 
ATOM     14  N   UNL     1      -0.017   1.365   0.009  0.00  0.00    +0.000 N 
ATOM     15  C   UNL     1       1.268   1.782  -0.001  0.00  0.00    +0.000 A 
ATOM     16  N   UNL     1       2.047   0.735  -0.013  0.00  0.00    +0.000 NA
ATOM     17  N   UNL     1       1.717   3.192   0.002  0.00  0.00    +0.000 N 
ATOM     18  O   UNL     1       0.897   4.092   0.015  0.00  0.00    +0.000 OA
ATOM     19  O   UNL     1       2.907   3.452  -0.008  0.00  0.00    +0.000 OA
ENDBRANCH  11  14
ENDBRANCH   1  11
TORSDOF 7
ENDMDL
MODEL      795
REMARK  Name = ZINC19691153
REMARK  11 active torsions:
REMARK  status: ('A' for Active; 'I' for Inactive)
REMARK    1  A    between atoms: C_1  and  N_2
REMARK    2  A    between atoms: C_4  and  C_7
REMARK    3  A    between atoms: C_7  and  C_8
REMARK    4  A    between atoms: C_7  and  O_21
REMARK    5  A    between atoms: C_8  and  N_9
REMARK    6  A    between atoms: N_9  and  C_10
REMARK    7  A    between atoms: C_10  and  C_11
REMARK    8  A    between atoms: C_14  and  O_19
REMARK    9  A    between atoms: C_15  and  O_17
REMARK   10  A    between atoms: O_17  and  C_18
REMARK   11  A    between atoms: O_19  and  C_20
REMARK                            x       y       z     vdW  Elec       q    Type
REMARK                         _______ _______ _______ _____ _____    ______ ____
ROOT
ATOM      1  N   UNL     1      -2.683   3.542   1.461  0.00  0.00    +0.000 N 
ATOM      2  H   UNL     1      -2.647   4.296   0.760  0.00  0.00    +0.000 HD
ATOM      3  H   UNL     1      -3.469   2.916   1.236  0.00  0.00    +0.000 HD
ENDROOT
BRANCH   1   4
ATOM      4  C   UNL     1      -1.427   2.780   1.418  0.00  0.00    +0.000 C 
BRANCH   4   5
ATOM      5  C   UNL     1      -1.238   2.187   0.020  0.00  0.00    +0.000 C 
BRANCH   5   9
ATOM      6  C   UNL     1       1.694  -1.775  -0.024  0.00  0.00    +0.000 C 
ATOM      7  N   UNL     1       1.234  -0.384  -0.012  0.00  0.00    +0.000 N 
ATOM      8  N   UNL     1       0.002  -0.004   0.002  0.00  0.00    +0.000 NA
ATOM      9  C   UNL     1      -0.016   1.306   0.009  0.00  0.00    +0.000 A 
ATOM     10  N   UNL     1       1.254   1.711  -0.001  0.00  0.00    +0.000 NA
ATOM     11  N   UNL     1       1.995   0.655  -0.013  0.00  0.00    +0.000 NA
ENDBRANCH   5   9
BRANCH   5  12
ATOM     12  O   UNL     1      -1.073   3.244  -0.928  0.00  0.00    +0.000 OA
ATOM     13  H   UNL     1      -0.951   2.861  -1.832  0.00  0.00    +0.000 HD
ENDBRANCH   5  12
ENDBRANCH   4   5
ENDBRANCH   1   4
BRANCH   1  14
ATOM     14  C   UNL     1      -2.897   4.128   2.791  0.00  0.00    +0.000 C 
BRANCH  14  15
ATOM     15  C   UNL     1      -4.192   4.899   2.797  0.00  0.00    +0.000 A 
ATOM     16  C   UNL     1      -4.196   6.241   2.465  0.00  0.00    +0.000 A 
ATOM     17  C   UNL     1      -5.382   6.952   2.463  0.00  0.00    +0.000 A 
ATOM     18  C   UNL     1      -6.568   6.322   2.806  0.00  0.00    +0.000 A 
ATOM     19  C   UNL     1      -6.562   4.973   3.146  0.00  0.00    +0.000 A 
ATOM     20  C   UNL     1      -5.371   4.265   3.140  0.00  0.00    +0.000 A 
BRANCH  19  21
ATOM     21  O   UNL     1      -7.724   4.350   3.482  0.00  0.00    +0.000 OA
ATOM     22  C   UNL     1      -7.643   2.964   3.819  0.00  0.00    +0.000 C 
ENDBRANCH  19  21
BRANCH  18  23
ATOM     23  O   UNL     1      -7.734   7.021   2.810  0.00  0.00    +0.000 OA
ATOM     24  C   UNL     1      -7.664   8.403   2.450  0.00  0.00    +0.000 C 
ENDBRANCH  18  23
ENDBRANCH  14  15
ENDBRANCH   1  14
TORSDOF 8
ENDMDL
MODEL      796
REMARK  Name = ZINC26470942
REMARK  9 active torsions:
REMARK  status: ('A' for Active; 'I' for Inactive)
REMARK    1  A    between atoms: C_1  and  C_2
REMARK    2  A    between atoms: C_6  and  N_8
REMARK    3  A    between atoms: N_8  and  C_9
REMARK    4  A    between atoms: N_8  and  C_10
REMARK    5  A    between atoms: C_10  and  C_11
REMARK    6  A    between atoms: C_11  and  S_12
REMARK    7  A    between atoms: S_12  and  C_15
REMARK    8  A    between atoms: C_15  and  C_16
REMARK    9  A    between atoms: C_16  and  C_17
REMARK                            x       y       z     vdW  Elec       q    Type
REMARK                         _______ _______ _______ _____ _____    ______ ____
ROOT
ATOM      1  C   UNL     1      -0.802   1.987  -1.117  0.00  0.00    +0.000 C 
ENDROOT
BRANCH   1   2
ATOM      2  N   UNL     1      -0.018   1.465   0.010  0.00  0.00    +0.000 N 
ATOM      3  C   UNL     1       0.002  -0.004   0.002  0.00  0.00    +0.000 C 
ATOM      4  H   UNL     1      -0.474   1.770   0.881  0.00  0.00    +0.000 HD
BRANCH   2  10
ATOM      5  C   UNL     1       4.256   1.645   2.495  0.00  0.00    +0.000 C 
ATOM      6  C   UNL     1       3.512   2.111   1.242  0.00  0.00    +0.000 C 
ATOM      7  C   UNL     1       4.250   1.617  -0.004  0.00  0.00    +0.000 C 
ATOM      8  C   UNL     1       3.505   2.083  -1.256  0.00  0.00    +0.000 C 
ATOM      9  C   UNL     1       2.084   1.515  -1.246  0.00  0.00    +0.000 C 
ATOM     10  C   UNL     1       1.346   2.010   0.000  0.00  0.00    +0.000 C 
ATOM     11  C   UNL     1       2.091   1.544   1.253  0.00  0.00    +0.000 C 
ENDBRANCH   2  10
ENDBRANCH   1   2
BRANCH   1  12
ATOM     12  C   UNL     1      -2.272   1.602  -0.938  0.00  0.00    +0.000 C 
BRANCH  12  13
ATOM     13  S   UNL     1      -3.240   2.247  -2.330  0.00  0.00    +0.000 S 
ATOM     14  O   UNL     1      -3.209   3.666  -2.280  0.00  0.00    +0.000 OA
ATOM     15  O   UNL     1      -2.815   1.588  -3.516  0.00  0.00    +0.000 OA
BRANCH  13  16
ATOM     16  C   UNL     1      -4.922   1.695  -1.938  0.00  0.00    +0.000 C 
BRANCH  16  17
ATOM     17  C   UNL     1      -5.882   2.164  -3.033  0.00  0.00    +0.000 C 
BRANCH  17  18
ATOM     18  C   UNL     1      -7.280   1.706  -2.707  0.00  0.00    +0.000 C 
ATOM     19  O   UNL     1      -7.488   1.066  -1.698  0.00  0.00    +0.000 OA
ATOM     20  N   UNL     1      -8.298   2.006  -3.537  0.00  0.00    +0.000 N 
ATOM     21  H   UNL     1      -8.121   2.550  -4.394  0.00  0.00    +0.000 HD
ATOM     22  H   UNL     1      -9.254   1.693  -3.315  0.00  0.00    +0.000 HD
ENDBRANCH  17  18
ENDBRANCH  16  17
ENDBRANCH  13  16
ENDBRANCH  12  13
ENDBRANCH   1  12
TORSDOF 7
ENDMDL
MODEL      797
REMARK  Name = ZINC16697797
REMARK  10 active torsions:
REMARK  status: ('A' for Active; 'I' for Inactive)
REMARK    1  A    between atoms: C_1  and  O_2
REMARK    2  A    between atoms: O_2  and  C_3
REMARK    3  A    between atoms: C_6  and  C_11
REMARK    4  A    between atoms: C_7  and  O_9
REMARK    5  A    between atoms: O_9  and  C_10
REMARK    6  A    between atoms: C_11  and  C_12
REMARK    7  A    between atoms: C_12  and  C_13
REMARK    8  A    between atoms: C_12  and  N_18
REMARK    9  A    between atoms: C_13  and  C_14
REMARK   10  A    between atoms: C_14  and  C_15
REMARK                            x       y       z     vdW  Elec       q    Type
REMARK                         _______ _______ _______ _____ _____    ______ ____
ROOT
ATOM      1  C   UNL     1       1.156   3.598   0.010  0.00  0.00    +0.000 C 
ENDROOT
BRANCH   1   5
ATOM      2  C   UNL     1       1.213  -0.678  -0.013  0.00  0.00    +0.000 A 
ATOM      3  C   UNL     1       2.403   0.035  -0.021  0.00  0.00    +0.000 A 
ATOM      4  C   UNL     1       2.382   1.417  -0.013  0.00  0.00    +0.000 A 
ATOM      5  C   UNL     1       1.176   2.091   0.002  0.00  0.00    +0.000 A 
ATOM      6  C   UNL     1      -0.017   1.382   0.010  0.00  0.00    +0.000 A 
ATOM      7  C   UNL     1       0.002  -0.004   0.002  0.00  0.00    +0.000 A 
BRANCH   2   9
ATOM      8  C   UNL     1       2.518  -2.666  -0.037  0.00  0.00    +0.000 C 
ATOM      9  O   UNL     1       1.235  -2.037  -0.021  0.00  0.00    +0.000 OA
ENDBRANCH   2   9
BRANCH   6  10
ATOM     10  O   UNL     1      -1.202   2.046   0.019  0.00  0.00    +0.000 OA
ATOM     11  C   UNL     1      -2.391   1.252   0.020  0.00  0.00    +0.000 C 
ENDBRANCH   6  10
ENDBRANCH   1   5
BRANCH   1  12
ATOM     12  C   UNL     1       1.038   4.099   1.451  0.00  0.00    +0.000 C 
BRANCH  12  13
ATOM     13  N   UNL     1       2.242   3.696   2.198  0.00  0.00    +0.000 N 
ATOM     14  H   UNL     1       3.078   4.110   1.760  0.00  0.00    +0.000 HD
ATOM     15  H   UNL     1       2.325   2.670   2.199  0.00  0.00    +0.000 HD
ATOM     16  H   UNL     1       2.168   4.031   3.170  0.00  0.00    +0.000 HD
ENDBRANCH  12  13
BRANCH  12  17
ATOM     17  C   UNL     1       0.892   5.622   1.452  0.00  0.00    +0.000 C 
BRANCH  17  18
ATOM     18  C   UNL     1       0.649   6.110   2.881  0.00  0.00    +0.000 C 
BRANCH  18  19
ATOM     19  C   UNL     1       0.506   7.611   2.881  0.00  0.00    +0.000 C 
ATOM     20  O   UNL     1       0.590   8.226   1.845  0.00  0.00    +0.000 OA
ATOM     21  O   UNL     1       0.285   8.263   4.033  0.00  0.00    +0.000 OA
ENDBRANCH  18  19
ENDBRANCH  17  18
ENDBRANCH  12  17
ENDBRANCH   1  12
TORSDOF 8
ENDMDL
MODEL      798
REMARK  Name = ZINC02302968
REMARK  9 active torsions:
REMARK  status: ('A' for Active; 'I' for Inactive)
REMARK    1  A    between atoms: C_1  and  C_2
REMARK    2  A    between atoms: C_2  and  N_19
REMARK    3  A    between atoms: C_3  and  C_4
REMARK    4  A    between atoms: C_3  and  N_19
REMARK    5  A    between atoms: C_5  and  C_6
REMARK    6  A    between atoms: C_5  and  N_19
REMARK    7  A    between atoms: C_6  and  N_7
REMARK    8  A    between atoms: C_8  and  C_10
REMARK    9  A    between atoms: C_16  and  C_18
REMARK                            x       y       z     vdW  Elec       q    Type
REMARK                         _______ _______ _______ _____ _____    ______ ____
ROOT
ATOM      1  N   UNL     1      -0.508  -5.233  -0.015  0.00  0.00    +0.000 N 
ATOM      2  C   UNL     1       0.537  -4.383  -0.035  0.00  0.00    +0.000 C 
ATOM      3  O   UNL     1       1.671  -4.815  -0.070  0.00  0.00    +0.000 OA
ATOM      4  H   UNL     1      -1.470  -4.865   0.014  0.00  0.00    +0.000 HD
ENDROOT
BRANCH   2   5
ATOM      5  C   UNL     1       0.302  -2.908  -0.015  0.00  0.00    +0.000 C 
ATOM      6  O   UNL     1      -0.832  -2.475   0.019  0.00  0.00    +0.000 OA
ATOM      7  N   UNL     1       1.347  -2.058  -0.035  0.00  0.00    +0.000 N 
ATOM      8  C   UNL     1       1.128  -0.688  -0.016  0.00  0.00    +0.000 A 
ATOM      9  N   UNL     1      -0.009  -0.006   0.021  0.00  0.00    +0.000 NA
ATOM     10  N   UNL     1      -0.028   1.255   0.034  0.00  0.00    +0.000 NA
ATOM     11  C   UNL     1       1.077   1.975   0.012  0.00  0.00    +0.000 A 
ATOM     12  S   UNL     1       2.299   0.667  -0.034  0.00  0.00    +0.000 S 
ATOM     13  C   UNL     1       1.259   3.470   0.021  0.00  0.00    +0.000 C 
ATOM     14  H   UNL     1       2.309  -2.425  -0.064  0.00  0.00    +0.000 HD
ENDBRANCH   2   5
BRANCH   1  15
ATOM     15  C   UNL     1      -0.277  -6.679  -0.035  0.00  0.00    +0.000 C 
BRANCH  15  16
ATOM     16  C   UNL     1      -1.620  -7.411  -0.006  0.00  0.00    +0.000 C 
BRANCH  16  17
ATOM     17  N   UNL     1      -1.374  -8.859  -0.171  0.00  0.00    +0.000 N 
ATOM     18  H   UNL     1      -0.656  -8.996  -0.896  0.00  0.00    +0.000 HD
BRANCH  17  19
ATOM     19  C   UNL     1      -2.618  -9.539  -0.591  0.00  0.00    +0.000 C 
ATOM     20  C   UNL     1      -2.843  -9.271  -2.080  0.00  0.00    +0.000 C 
ENDBRANCH  17  19
BRANCH  17  22
ATOM     21  C   UNL     1      -0.431 -10.874   0.847  0.00  0.00    +0.000 C 
ATOM     22  C   UNL     1      -0.888  -9.436   1.100  0.00  0.00    +0.000 C 
ENDBRANCH  17  22
ENDBRANCH  16  17
ENDBRANCH  15  16
ENDBRANCH   1  15
TORSDOF 6
ENDMDL
MODEL      799
REMARK  Name = ZINC16608371
REMARK  10 active torsions:
REMARK  status: ('A' for Active; 'I' for Inactive)
REMARK    1  A    between atoms: C_1  and  C_2
REMARK    2  A    between atoms: C_7  and  S_9
REMARK    3  A    between atoms: S_9  and  C_10
REMARK    4  A    between atoms: C_10  and  C_11
REMARK    5  A    between atoms: N_13  and  C_14
REMARK    6  A    between atoms: C_14  and  C_15
REMARK    7  A    between atoms: C_15  and  C_16
REMARK    8  A    between atoms: C_16  and  N_19
REMARK    9  A    between atoms: C_17  and  N_19
REMARK   10  A    between atoms: C_18  and  N_19
REMARK                            x       y       z     vdW  Elec       q    Type
REMARK                         _______ _______ _______ _____ _____    ______ ____
ROOT
ATOM      1  C   UNL     1      -0.927   1.718   3.671  0.00  0.00    +0.000 C 
ENDROOT
BRANCH   1   2
ATOM      2  C   UNL     1      -0.222   1.232   2.431  0.00  0.00    +0.000 C 
ATOM      3  O   UNL     1       0.774   0.548   2.529  0.00  0.00    +0.000 OA
ATOM      4  N   UNL     1      -0.698   1.558   1.213  0.00  0.00    +0.000 N 
ATOM      5  H   UNL     1      -1.545   2.139   1.130  0.00  0.00    +0.000 HD
BRANCH   4   6
ATOM      6  C   UNL     1      -0.013   1.086   0.008  0.00  0.00    +0.000 C 
BRANCH   6   7
ATOM      7  C   UNL     1      -0.753   1.593  -1.232  0.00  0.00    +0.000 C 
BRANCH   7   8
ATOM      8  C   UNL     1      -0.037   1.099  -2.490  0.00  0.00    +0.000 C 
BRANCH   8  11
ATOM      9  C   UNL     1       0.035   1.336  -4.899  0.00  0.00    +0.000 C 
ATOM     10  C   UNL     1      -2.083   0.983  -3.779  0.00  0.00    +0.000 C 
ATOM     11  N   UNL     1      -0.750   1.614  -3.678  0.00  0.00    +0.000 N 
ATOM     12  H   UNL     1      -0.869   2.633  -3.581  0.00  0.00    +0.000 HD
ENDBRANCH   8  11
ENDBRANCH   7   8
ENDBRANCH   6   7
ENDBRANCH   4   6
ENDBRANCH   1   2
BRANCH   1  13
ATOM     13  S   UNL     1      -0.052   1.119   5.138  0.00  0.00    +0.000 S 
BRANCH  13  20
ATOM     14  C   UNL     1      -2.755   0.452   8.476  0.00  0.00    +0.000 C 
ATOM     15  C   UNL     1      -1.817   1.645   8.666  0.00  0.00    +0.000 C 
ATOM     16  C   UNL     1      -2.582   2.954   8.425  0.00  0.00    +0.000 C 
ATOM     17  C   UNL     1      -2.873   3.084   6.952  0.00  0.00    +0.000 C 
ATOM     18  O   UNL     1      -3.845   3.719   6.591  0.00  0.00    +0.000 OA
ATOM     19  N   UNL     1      -2.089   2.526   6.042  0.00  0.00    +0.000 NA
ATOM     20  C   UNL     1      -1.033   1.794   6.367  0.00  0.00    +0.000 C 
ATOM     21  N   UNL     1      -0.723   1.583   7.682  0.00  0.00    +0.000 N 
ATOM     22  H   UNL     1       0.245   1.386   7.974  0.00  0.00    +0.000 HD
ENDBRANCH  13  20
ENDBRANCH   1  13
TORSDOF 7
ENDMDL
MODEL      800
REMARK  Name = ZINC21302588
REMARK  11 active torsions:
REMARK  status: ('A' for Active; 'I' for Inactive)
REMARK    1  A    between atoms: C_1  and  C_2
REMARK    2  A    between atoms: C_2  and  C_3
REMARK    3  A    between atoms: C_2  and  C_4
REMARK    4  A    between atoms: C_2  and  O_5
REMARK    5  A    between atoms: O_5  and  C_6
REMARK    6  A    between atoms: C_6  and  C_8
REMARK    7  A    between atoms: C_8  and  C_9
REMARK    8  A    between atoms: C_8  and  C_16
REMARK    9  A    between atoms: C_16  and  C_17
REMARK   10  A    between atoms: C_16  and  N_21
REMARK   11  A    between atoms: C_17  and  C_18
REMARK                            x       y       z     vdW  Elec       q    Type
REMARK                         _______ _______ _______ _____ _____    ______ ____
ROOT
ATOM      1  C   UNL     1       2.454   3.935  -0.001  0.00  0.00    +0.000 C 
ENDROOT
BRANCH   1   2
ATOM      2  C   UNL     1       1.158   3.165   0.007  0.00  0.00    +0.000 A 
ATOM      3  C   UNL     1       1.175   1.783   0.000  0.00  0.00    +0.000 A 
ATOM      4  C   UNL     1      -0.013   1.076   0.008  0.00  0.00    +0.000 A 
ATOM      5  C   UNL     1      -1.219   1.750   0.017  0.00  0.00    +0.000 A 
ATOM      6  C   UNL     1      -1.237   3.135   0.030  0.00  0.00    +0.000 A 
ATOM      7  C   UNL     1      -0.047   3.842   0.022  0.00  0.00    +0.000 A 
ATOM      8  F   UNL     1      -2.416   3.795   0.044  0.00  0.00    +0.000 F 
ENDBRANCH   1   2
BRANCH   1   9
ATOM      9  C   UNL     1       2.535   4.796   1.233  0.00  0.00    +0.000 C 
ATOM     10  O   UNL     1       2.630   5.996   1.127  0.00  0.00    +0.000 OA
BRANCH   9  11
ATOM     11  O   UNL     1       2.502   4.230   2.450  0.00  0.00    +0.000 OA
BRANCH  11  13
ATOM     12  C   UNL     1       1.409   6.099   3.563  0.00  0.00    +0.000 C 
ATOM     13  C   UNL     1       2.585   5.121   3.593  0.00  0.00    +0.000 C 
ATOM     14  C   UNL     1       2.532   4.300   4.884  0.00  0.00    +0.000 C 
ATOM     15  C   UNL     1       3.900   5.901   3.538  0.00  0.00    +0.000 C 
ENDBRANCH  11  13
ENDBRANCH   9  11
ENDBRANCH   1   9
BRANCH   1  16
ATOM     16  C   UNL     1       2.512   4.822  -1.247  0.00  0.00    +0.000 C 
BRANCH  16  17
ATOM     17  N   UNL     1       3.775   5.572  -1.255  0.00  0.00    +0.000 N 
ATOM     18  H   UNL     1       4.566   4.913  -1.266  0.00  0.00    +0.000 HD
ATOM     19  H   UNL     1       3.831   6.161  -0.412  0.00  0.00    +0.000 HD
ATOM     20  H   UNL     1       3.815   6.169  -2.093  0.00  0.00    +0.000 HD
ENDBRANCH  16  17
BRANCH  16  21
ATOM     21  C   UNL     1       2.429   3.947  -2.499  0.00  0.00    +0.000 C 
BRANCH  21  22
ATOM     22  C   UNL     1       2.363   4.826  -3.722  0.00  0.00    +0.000 C 
ATOM     23  O   UNL     1       2.380   6.029  -3.603  0.00  0.00    +0.000 OA
ATOM     24  O   UNL     1       2.285   4.274  -4.943  0.00  0.00    +0.000 OA
ENDBRANCH  21  22
ENDBRANCH  16  21
ENDBRANCH   1  16
TORSDOF 8
ENDMDL
MODEL      801
REMARK  Name = ZINC19681078
REMARK  8 active torsions:
REMARK  status: ('A' for Active; 'I' for Inactive)
REMARK    1  A    between atoms: C_1  and  C_2
REMARK    2  A    between atoms: C_3  and  S_8
REMARK    3  A    between atoms: C_4  and  C_7
REMARK    4  A    between atoms: S_8  and  N_11
REMARK    5  A    between atoms: N_11  and  C_12
REMARK    6  A    between atoms: C_12  and  C_13
REMARK    7  A    between atoms: C_13  and  C_14
REMARK    8  A    between atoms: C_14  and  N_15
REMARK                            x       y       z     vdW  Elec       q    Type
REMARK                         _______ _______ _______ _____ _____    ______ ____
ROOT
ATOM      1  N   UNL     1      -0.704   1.998   1.216  0.00  0.00    +0.000 NA
ATOM      2  H   UNL     1      -1.277   1.347   1.772  0.00  0.00    +0.000 HD
ENDROOT
BRANCH   1   3
ATOM      3  S   UNL     1      -0.559   3.580   1.685  0.00  0.00    +0.000 S 
ATOM      4  O   UNL     1      -1.350   3.730   2.856  0.00  0.00    +0.000 OA
ATOM      5  O   UNL     1       0.828   3.886   1.658  0.00  0.00    +0.000 OA
BRANCH   3   8
ATOM      6  C   UNL     1      -3.767   4.670   1.333  0.00  0.00    +0.000 C 
ATOM      7  C   UNL     1      -2.665   4.982   0.354  0.00  0.00    +0.000 A 
ATOM      8  C   UNL     1      -1.317   4.565   0.435  0.00  0.00    +0.000 A 
ATOM      9  C   UNL     1      -0.741   5.103  -0.666  0.00  0.00    +0.000 A 
ATOM     10  O   UNL     1      -1.708   5.765  -1.315  0.00  0.00    +0.000 OA
ATOM     11  N   UNL     1      -2.766   5.690  -0.734  0.00  0.00    +0.000 NA
ATOM     12  C   UNL     1       0.703   4.979  -1.081  0.00  0.00    +0.000 C 
ENDBRANCH   3   8
ENDBRANCH   1   3
BRANCH   1  13
ATOM     13  C   UNL     1      -0.019   1.526   0.010  0.00  0.00    +0.000 C 
BRANCH  13  14
ATOM     14  C   UNL     1       0.002  -0.004   0.002  0.00  0.00    +0.000 C 
BRANCH  14  15
ATOM     15  C   UNL     1       0.718  -0.497  -1.257  0.00  0.00    +0.000 C 
BRANCH  15  16
ATOM     16  N   UNL     1       0.738  -1.966  -1.265  0.00  0.00    +0.000 NA
ATOM     17  C   UNL     1      -0.584  -2.513  -0.928  0.00  0.00    +0.000 C 
ATOM     18  C   UNL     1      -0.502  -4.040  -0.869  0.00  0.00    +0.000 C 
ATOM     19  N   UNL     1      -0.038  -4.553  -2.166  0.00  0.00    +0.000 N 
ATOM     20  C   UNL     1       1.284  -4.007  -2.503  0.00  0.00    +0.000 C 
ATOM     21  C   UNL     1       1.202  -2.480  -2.561  0.00  0.00    +0.000 C 
ATOM     22  H   UNL     1       0.021  -5.581  -2.123  0.00  0.00    +0.000 HD
ATOM     23  H   UNL     1      -0.711  -4.288  -2.898  0.00  0.00    +0.000 HD
ENDBRANCH  15  16
ENDBRANCH  14  15
ENDBRANCH  13  14
ENDBRANCH   1  13
TORSDOF 6
ENDMDL
MODEL      802
REMARK  Name = ZINC11661273
REMARK  9 active torsions:
REMARK  status: ('A' for Active; 'I' for Inactive)
REMARK    1  A    between atoms: C_1  and  C_2
REMARK    2  A    between atoms: C_3  and  O_7
REMARK    3  A    between atoms: O_7  and  C_8
REMARK    4  A    between atoms: C_8  and  C_9
REMARK    5  A    between atoms: C_9  and  N_20
REMARK    6  A    between atoms: C_10  and  C_11
REMARK    7  A    between atoms: C_10  and  N_20
REMARK    8  A    between atoms: C_11  and  O_19
REMARK    9  A    between atoms: N_15  and  C_18
REMARK                            x       y       z     vdW  Elec       q    Type
REMARK                         _______ _______ _______ _____ _____    ______ ____
ROOT
ATOM      1  N   UNL     1       3.077  -2.316  -1.672  0.00  0.00    +0.000 N 
ATOM      2  H   UNL     1       2.160  -2.735  -1.461  0.00  0.00    +0.000 HD
ATOM      3  H   UNL     1       3.681  -2.392  -0.842  0.00  0.00    +0.000 HD
ENDROOT
BRANCH   1   4
ATOM      4  C   UNL     1       3.697  -3.039  -2.798  0.00  0.00    +0.000 C 
BRANCH   4   5
ATOM      5  C   UNL     1       3.872  -4.510  -2.413  0.00  0.00    +0.000 C 
BRANCH   5   6
ATOM      6  O   UNL     1       2.588  -5.111  -2.234  0.00  0.00    +0.000 OA
BRANCH   6   9
ATOM      7  C   UNL     1      -0.015  -6.679  -1.765  0.00  0.00    +0.000 C 
ATOM      8  C   UNL     1       1.398  -7.191  -1.660  0.00  0.00    +0.000 A 
ATOM      9  C   UNL     1       2.565  -6.423  -1.887  0.00  0.00    +0.000 A 
ATOM     10  N   UNL     1       3.615  -7.175  -1.706  0.00  0.00    +0.000 NA
ATOM     11  O   UNL     1       3.153  -8.470  -1.357  0.00  0.00    +0.000 OA
ATOM     12  N   UNL     1       1.736  -8.406  -1.352  0.00  0.00    +0.000 NA
ENDBRANCH   6   9
ENDBRANCH   5   6
ENDBRANCH   4   5
ENDBRANCH   1   4
BRANCH   1  13
ATOM     13  C   UNL     1       2.896  -0.893  -2.015  0.00  0.00    +0.000 C 
BRANCH  13  14
ATOM     14  C   UNL     1       2.383  -0.141  -0.785  0.00  0.00    +0.000 C 
ATOM     15  C   UNL     1       3.353  -0.352   0.380  0.00  0.00    +0.000 C 
ATOM     16  C   UNL     1       2.976   0.618   1.506  0.00  0.00    +0.000 C 
ATOM     17  C   UNL     1       3.264   2.046   1.038  0.00  0.00    +0.000 C 
ATOM     18  N   UNL     1       2.658   2.287  -0.265  0.00  0.00    +0.000 N 
ATOM     19  C   UNL     1       2.277   1.323  -1.103  0.00  0.00    +0.000 C 
ATOM     20  O   UNL     1       1.821   1.645  -2.180  0.00  0.00    +0.000 OA
ATOM     21  C   UNL     1       2.454   3.678  -0.680  0.00  0.00    +0.000 C 
BRANCH  14  22
ATOM     22  O   UNL     1       1.095  -0.643  -0.426  0.00  0.00    +0.000 OA
ATOM     23  H   UNL     1       1.161  -1.609  -0.217  0.00  0.00    +0.000 HD
ENDBRANCH  14  22
ENDBRANCH  13  14
ENDBRANCH   1  13
TORSDOF 7
ENDMDL
MODEL      803
REMARK  Name = ZINC02548410
REMARK  9 active torsions:
REMARK  status: ('A' for Active; 'I' for Inactive)
REMARK    1  A    between atoms: C_1  and  O_2
REMARK    2  A    between atoms: O_2  and  C_3
REMARK    3  A    between atoms: C_3  and  C_5
REMARK    4  A    between atoms: C_5  and  C_6
REMARK    5  A    between atoms: C_6  and  C_7
REMARK    6  A    between atoms: C_6  and  N_18
REMARK    7  A    between atoms: C_9  and  C_10
REMARK    8  A    between atoms: C_9  and  N_18
REMARK    9  A    between atoms: C_15  and  O_16
REMARK                            x       y       z     vdW  Elec       q    Type
REMARK                         _______ _______ _______ _____ _____    ______ ____
ROOT
ATOM      1  N   UNK A   1       2.643   3.533  -0.013  0.00  0.00    +0.000 N 
ATOM      2  H   UNK A   1       3.196   2.878  -0.585  0.00  0.00    +0.000 HD
ATOM      3  H   UNK A   1       2.703   4.474  -0.425  0.00  0.00    +0.000 HD
ENDROOT
BRANCH   1   4
ATOM      4  C   UNK A   1       1.235   3.094   0.007  0.00  0.00    +0.000 C 
BRANCH   4   5
ATOM      5  C   UNK A   1       1.177   1.588  -0.001  0.00  0.00    +0.000 C 
ATOM      6  O   UNK A   1       2.199   0.944  -0.014  0.00  0.00    +0.000 OA
ATOM      7  O   UNK A   1      -0.011   0.963   0.007  0.00  0.00    +0.000 OA
ENDBRANCH   4   5
BRANCH   4   8
ATOM      8  C   UNK A   1       0.522   3.639  -1.233  0.00  0.00    +0.000 C 
BRANCH   8   9
ATOM      9  C   UNK A   1       0.473   5.143  -1.164  0.00  0.00    +0.000 C 
ATOM     10  O   UNK A   1       0.958   5.721  -0.220  0.00  0.00    +0.000 OA
BRANCH   9  12
ATOM     11  C   UNK A   1      -0.121   7.287  -2.018  0.00  0.00    +0.000 C 
ATOM     12  O   UNK A   1      -0.110   5.841  -2.151  0.00  0.00    +0.000 OA
ENDBRANCH   9  12
ENDBRANCH   8   9
ENDBRANCH   4   8
ENDBRANCH   1   4
BRANCH   1  13
ATOM     13  C   UNK A   0       3.189   3.565   1.357  0.00  0.00    +0.000 C 
BRANCH  13  14
ATOM     14  C   UNK A   0       4.626   4.015   1.306  0.00  0.00    +0.000 A 
ATOM     15  C   UNK A   0       5.645   3.085   1.383  0.00  0.00    +0.000 A 
ATOM     16  C   UNK A   0       6.964   3.497   1.331  0.00  0.00    +0.000 A 
ATOM     17  C   UNK A   0       7.267   4.841   1.212  0.00  0.00    +0.000 A 
ATOM     18  C   UNK A   0       6.252   5.775   1.141  0.00  0.00    +0.000 A 
ATOM     19  C   UNK A   0       4.927   5.364   1.187  0.00  0.00    +0.000 A 
BRANCH  19  20
ATOM     20  O   UNK A   0       3.927   6.281   1.117  0.00  0.00    +0.000 OA
ATOM     21  H   UNK A   0       3.387   6.132   1.933  0.00  0.00    +0.000 HD
ENDBRANCH  19  20
ENDBRANCH  13  14
ENDBRANCH   1  13
TORSDOF 8
ENDMDL
MODEL      804
REMARK  Name = ZINC19685643
REMARK  12 active torsions:
REMARK  status: ('A' for Active; 'I' for Inactive)
REMARK    1  A    between atoms: C_1  and  C_2
REMARK    2  A    between atoms: C_2  and  N_3
REMARK    3  A    between atoms: N_3  and  C_4
REMARK    4  A    between atoms: N_3  and  S_9
REMARK    5  A    between atoms: C_4  and  C_5
REMARK    6  A    between atoms: C_5  and  C_6
REMARK    7  A    between atoms: C_5  and  O_8
REMARK    8  A    between atoms: C_6  and  N_7
REMARK    9  A    between atoms: S_9  and  C_12
REMARK   10  A    between atoms: C_15  and  O_19
REMARK   11  A    between atoms: C_16  and  C_18
REMARK   12  A    between atoms: O_19  and  C_20
REMARK                            x       y       z     vdW  Elec       q    Type
REMARK                         _______ _______ _______ _____ _____    ______ ____
ROOT
ATOM      1  N   UNL     1      -3.218   4.238  -1.528  0.00  0.00    +0.000 NA
ENDROOT
BRANCH   1   2
ATOM      2  S   UNL     1      -2.776   3.991   0.048  0.00  0.00    +0.000 S 
ATOM      3  O   UNL     1      -3.732   3.099   0.604  0.00  0.00    +0.000 OA
ATOM      4  O   UNL     1      -2.519   5.274   0.603  0.00  0.00    +0.000 OA
BRANCH   2   5
ATOM      5  C   UNL     1      -1.237   3.133   0.030  0.00  0.00    +0.000 A 
ATOM      6  C   UNL     1      -1.218   1.751   0.017  0.00  0.00    +0.000 A 
ATOM      7  C   UNL     1      -0.013   1.076   0.008  0.00  0.00    +0.000 A 
ATOM      8  C   UNL     1       1.179   1.786   0.000  0.00  0.00    +0.000 A 
ATOM      9  C   UNL     1       1.157   3.173   0.008  0.00  0.00    +0.000 A 
ATOM     10  C   UNL     1      -0.051   3.844   0.022  0.00  0.00    +0.000 A 
ATOM     11  C   UNL     1       2.449   3.948  -0.000  0.00  0.00    +0.000 C 
BRANCH   8  12
ATOM     12  O   UNL     1       2.366   1.125  -0.015  0.00  0.00    +0.000 OA
ATOM     13  C   UNL     1       2.313  -0.303  -0.022  0.00  0.00    +0.000 C 
ENDBRANCH   8  12
ENDBRANCH   2   5
ENDBRANCH   1   2
BRANCH   1  15
ATOM     14  C   UNL     1      -1.514   5.173  -3.012  0.00  0.00    +0.000 C 
ATOM     15  C   UNL     1      -2.796   5.455  -2.226  0.00  0.00    +0.000 C 
ENDBRANCH   1  15
BRANCH   1  16
ATOM     16  C   UNL     1      -4.032   3.238  -2.225  0.00  0.00    +0.000 C 
BRANCH  16  17
ATOM     17  C   UNL     1      -5.508   3.628  -2.132  0.00  0.00    +0.000 C 
BRANCH  17  18
ATOM     18  O   UNL     1      -5.900   3.687  -0.759  0.00  0.00    +0.000 OA
ATOM     19  H   UNL     1      -5.351   4.362  -0.287  0.00  0.00    +0.000 HD
ENDBRANCH  17  18
BRANCH  17  20
ATOM     20  C   UNL     1      -6.358   2.584  -2.861  0.00  0.00    +0.000 C 
BRANCH  20  21
ATOM     21  N   UNL     1      -7.761   3.019  -2.875  0.00  0.00    +0.000 N 
ATOM     22  H   UNL     1      -7.837   3.923  -3.362  0.00  0.00    +0.000 HD
ATOM     23  H   UNL     1      -8.100   3.122  -1.907  0.00  0.00    +0.000 HD
ATOM     24  H   UNL     1      -8.334   2.317  -3.365  0.00  0.00    +0.000 HD
ENDBRANCH  20  21
ENDBRANCH  17  20
ENDBRANCH  16  17
ENDBRANCH   1  16
TORSDOF 9
ENDMDL
MODEL      805
REMARK  Name = ZINC20184345
REMARK  8 active torsions:
REMARK  status: ('A' for Active; 'I' for Inactive)
REMARK    1  A    between atoms: C_1  and  C_2
REMARK    2  A    between atoms: C_2  and  C_3
REMARK    3  A    between atoms: C_3  and  S_4
REMARK    4  A    between atoms: S_4  and  N_7
REMARK    5  A    between atoms: N_7  and  C_8
REMARK    6  A    between atoms: C_8  and  C_9
REMARK    7  A    between atoms: C_9  and  C_10
REMARK    8  A    between atoms: C_10  and  C_11
REMARK                            x       y       z     vdW  Elec       q    Type
REMARK                         _______ _______ _______ _____ _____    ______ ____
ROOT
ATOM      1  C   UNL     1      -0.770   2.680   3.419  0.00  0.00    +0.000 C 
ENDROOT
BRANCH   1   2
ATOM      2  C   UNL     1      -0.037   2.199   2.193  0.00  0.00    +0.000 C 
ATOM      3  O   UNL     1       1.157   2.383   2.090  0.00  0.00    +0.000 OA
ATOM      4  N   UNL     1      -0.709   1.564   1.212  0.00  0.00    +0.000 N 
ATOM      5  C   UNL     1      -0.013   1.086   0.008  0.00  0.00    +0.000 C 
ATOM      6  C   UNL     1      -0.762   1.597  -1.227  0.00  0.00    +0.000 C 
ATOM      7  N   UNL     1      -2.175   1.208  -1.135  0.00  0.00    +0.000 N 
ATOM      8  C   UNL     1      -2.826   1.832   0.024  0.00  0.00    +0.000 C 
ATOM      9  C   UNL     1      -2.162   1.331   1.310  0.00  0.00    +0.000 C 
ATOM     10  H   UNL     1      -2.663   1.498  -1.995  0.00  0.00    +0.000 HD
ATOM     11  H   UNL     1      -2.240   0.183  -1.048  0.00  0.00    +0.000 HD
ENDBRANCH   1   2
BRANCH   1  12
ATOM     12  C   UNL     1       0.217   3.362   4.368  0.00  0.00    +0.000 C 
BRANCH  12  13
ATOM     13  C   UNL     1      -0.527   3.851   5.613  0.00  0.00    +0.000 C 
BRANCH  13  14
ATOM     14  N   UNL     1       0.418   4.504   6.522  0.00  0.00    +0.000 NA
ATOM     15  H   UNL     1       1.431   4.374   6.391  0.00  0.00    +0.000 HD
BRANCH  14  16
ATOM     16  S   UNL     1      -0.143   5.449   7.760  0.00  0.00    +0.000 S 
ATOM     17  O   UNL     1       1.027   5.930   8.408  0.00  0.00    +0.000 OA
ATOM     18  O   UNL     1      -1.052   6.351   7.145  0.00  0.00    +0.000 OA
BRANCH  16  19
ATOM     19  C   UNL     1      -1.037   4.308   8.851  0.00  0.00    +0.000 C 
BRANCH  19  21
ATOM     20  C   UNL     1      -2.359   4.118  10.962  0.00  0.00    +0.000 C 
ATOM     21  C   UNL     1      -1.605   5.080  10.043  0.00  0.00    +0.000 C 
ENDBRANCH  19  21
ENDBRANCH  16  19
ENDBRANCH  14  16
ENDBRANCH  13  14
ENDBRANCH  12  13
ENDBRANCH   1  12
TORSDOF 7
ENDMDL
MODEL      806
REMARK  Name = ZINC20306534
REMARK  9 active torsions:
REMARK  status: ('A' for Active; 'I' for Inactive)
REMARK    1  A    between atoms: C_1  and  O_2
REMARK    2  A    between atoms: O_2  and  C_3
REMARK    3  A    between atoms: C_3  and  C_5
REMARK    4  A    between atoms: C_8  and  C_11
REMARK    5  A    between atoms: C_11  and  S_12
REMARK    6  A    between atoms: S_12  and  C_13
REMARK    7  A    between atoms: C_13  and  C_14
REMARK    8  A    between atoms: C_14  and  C_15
REMARK    9  A    between atoms: C_14  and  N_18
REMARK                            x       y       z     vdW  Elec       q    Type
REMARK                         _______ _______ _______ _____ _____    ______ ____
ROOT
ATOM      1  C   UNK     1      -3.415   3.904  -3.093  0.00  0.00    +0.000 C 
ENDROOT
BRANCH   1   5
ATOM      2  C   UNK     1      -6.922   6.330  -3.412  0.00  0.00    +0.000 A 
ATOM      3  C   UNK     1      -5.678   6.922  -3.183  0.00  0.00    +0.000 A 
ATOM      4  C   UNK     1      -4.551   6.133  -3.081  0.00  0.00    +0.000 A 
ATOM      5  C   UNK     1      -4.651   4.759  -3.205  0.00  0.00    +0.000 A 
ATOM      6  C   UNK     1      -5.879   4.166  -3.438  0.00  0.00    +0.000 A 
ATOM      7  C   UNK     1      -7.015   4.942  -3.536  0.00  0.00    +0.000 A 
BRANCH   2   8
ATOM      8  C   UNK     1      -8.133   7.168  -3.522  0.00  0.00    +0.000 C 
ATOM      9  O   UNK     1      -8.049   8.375  -3.413  0.00  0.00    +0.000 OA
BRANCH   8  11
ATOM     10  C   UNK     1     -10.479   7.479  -3.840  0.00  0.00    +0.000 C 
ATOM     11  O   UNK     1      -9.332   6.594  -3.743  0.00  0.00    +0.000 OA
ENDBRANCH   8  11
ENDBRANCH   2   8
ENDBRANCH   1   5
BRANCH   1  12
ATOM     12  S   UNK     1      -3.165   3.426  -1.361  0.00  0.00    +0.000 S 
BRANCH  12  13
ATOM     13  C   UNK     1      -1.659   2.415  -1.398  0.00  0.00    +0.000 C 
BRANCH  13  14
ATOM     14  C   UNK     1      -1.329   1.940   0.019  0.00  0.00    +0.000 C 
BRANCH  14  15
ATOM     15  N   UNK     1      -2.390   1.040   0.493  0.00  0.00    +0.000 N 
ATOM     16  H   UNK     1      -2.457   0.226  -0.135  0.00  0.00    +0.000 HD
ATOM     17  H   UNK     1      -3.289   1.542   0.500  0.00  0.00    +0.000 HD
ATOM     18  H   UNK     1      -2.169   0.720   1.446  0.00  0.00    +0.000 HD
ENDBRANCH  14  15
BRANCH  14  19
ATOM     19  C   UNK     1      -0.014   1.204   0.009  0.00  0.00    +0.000 C 
ATOM     20  O   UNK     1       0.002  -0.004   0.002  0.00  0.00    +0.000 OA
ATOM     21  O   UNK     1       1.139   1.891   0.001  0.00  0.00    +0.000 OA
ENDBRANCH  14  19
ENDBRANCH  13  14
ENDBRANCH  12  13
ENDBRANCH   1  12
TORSDOF 8
ENDMDL
MODEL      807
REMARK  Name = ZINC10111680
REMARK  10 active torsions:
REMARK  status: ('A' for Active; 'I' for Inactive)
REMARK    1  A    between atoms: C_1  and  C_2
REMARK    2  A    between atoms: C_2  and  S_3
REMARK    3  A    between atoms: S_3  and  N_6
REMARK    4  A    between atoms: N_6  and  C_7
REMARK    5  A    between atoms: C_10  and  C_13
REMARK    6  A    between atoms: N_15  and  C_16
REMARK    7  A    between atoms: C_16  and  C_17
REMARK    8  A    between atoms: C_17  and  N_20
REMARK    9  A    between atoms: C_18  and  N_20
REMARK   10  A    between atoms: C_19  and  N_20
REMARK                            x       y       z     vdW  Elec       q    Type
REMARK                         _______ _______ _______ _____ _____    ______ ____
ROOT
ATOM      1  C   UNL     1      -1.237   1.695  -0.149  0.00  0.00    +0.000 A 
ATOM      2  C   UNL     1      -1.432   2.926   0.471  0.00  0.00    +0.000 A 
ATOM      3  C   UNL     1      -2.616   3.605   0.298  0.00  0.00    +0.000 A 
ATOM      4  C   UNL     1      -3.627   3.053  -0.494  0.00  0.00    +0.000 A 
ATOM      5  C   UNL     1      -3.430   1.815  -1.111  0.00  0.00    +0.000 A 
ATOM      6  C   UNL     1      -2.242   1.142  -0.938  0.00  0.00    +0.000 A 
ENDROOT
BRANCH   4   7
ATOM      7  C   UNL     1      -4.900   3.777  -0.679  0.00  0.00    +0.000 C 
ATOM      8  O   UNL     1      -5.778   3.296  -1.368  0.00  0.00    +0.000 OA
ATOM      9  N   UNL     1      -5.088   4.971  -0.083  0.00  0.00    +0.000 N 
ATOM     10  H   UNL     1      -4.344   5.379   0.501  0.00  0.00    +0.000 HD
BRANCH   9  11
ATOM     11  C   UNL     1      -6.352   5.689  -0.266  0.00  0.00    +0.000 C 
BRANCH  11  12
ATOM     12  C   UNL     1      -6.307   7.007   0.510  0.00  0.00    +0.000 C 
BRANCH  12  15
ATOM     13  C   UNL     1      -7.663   8.876   1.238  0.00  0.00    +0.000 C 
ATOM     14  C   UNL     1      -7.741   8.150  -1.071  0.00  0.00    +0.000 C 
ATOM     15  N   UNL     1      -7.595   7.710   0.333  0.00  0.00    +0.000 N 
ATOM     16  H   UNL     1      -8.363   7.062   0.561  0.00  0.00    +0.000 HD
ENDBRANCH  12  15
ENDBRANCH  11  12
ENDBRANCH   9  11
ENDBRANCH   4   7
BRANCH   1  17
ATOM     17  N   UNL     1      -0.037   1.013   0.025  0.00  0.00    +0.000 N 
ATOM     18  H   UNL     1      -0.044   0.007   0.247  0.00  0.00    +0.000 HD
BRANCH  17  19
ATOM     19  S   UNL     1       1.402   1.819  -0.125  0.00  0.00    +0.000 S 
ATOM     20  O   UNL     1       1.304   2.908   0.781  0.00  0.00    +0.000 OA
ATOM     21  O   UNL     1       2.396   0.819   0.049  0.00  0.00    +0.000 OA
BRANCH  19  23
ATOM     22  C   UNL     1       2.749   3.131  -2.111  0.00  0.00    +0.000 C 
ATOM     23  C   UNL     1       1.419   2.427  -1.834  0.00  0.00    +0.000 C 
ENDBRANCH  19  23
ENDBRANCH  17  19
ENDBRANCH   1  17
TORSDOF 7
ENDMDL
MODEL      808
REMARK  Name = ZINC19685835
REMARK  11 active torsions:
REMARK  status: ('A' for Active; 'I' for Inactive)
REMARK    1  A    between atoms: C_1  and  N_2
REMARK    2  A    between atoms: N_2  and  C_3
REMARK    3  A    between atoms: C_3  and  C_4
REMARK    4  A    between atoms: C_4  and  C_5
REMARK    5  A    between atoms: C_4  and  O_19
REMARK    6  A    between atoms: C_5  and  S_6
REMARK    7  A    between atoms: S_6  and  C_9
REMARK    8  A    between atoms: C_11  and  O_17
REMARK    9  A    between atoms: C_14  and  O_15
REMARK   10  A    between atoms: O_15  and  C_16
REMARK   11  A    between atoms: O_17  and  C_18
REMARK                            x       y       z     vdW  Elec       q    Type
REMARK                         _______ _______ _______ _____ _____    ______ ____
ROOT
ATOM      1  S   UNL     1      -1.554   2.243   0.022  0.00  0.00    +0.000 S 
ATOM      2  O   UNL     1      -2.288   1.660   1.090  0.00  0.00    +0.000 OA
ATOM      3  O   UNL     1      -1.200   3.619   0.052  0.00  0.00    +0.000 OA
ENDROOT
BRANCH   1   4
ATOM      4  C   UNL     1      -0.017   1.383   0.010  0.00  0.00    +0.000 A 
ATOM      5  C   UNL     1       1.170   2.090   0.002  0.00  0.00    +0.000 A 
ATOM      6  C   UNL     1       2.380   1.413  -0.013  0.00  0.00    +0.000 A 
ATOM      7  C   UNL     1       2.399   0.025  -0.021  0.00  0.00    +0.000 A 
ATOM      8  C   UNL     1       1.213  -0.681  -0.013  0.00  0.00    +0.000 A 
ATOM      9  C   UNL     1       0.002  -0.004   0.002  0.00  0.00    +0.000 A 
BRANCH   9  10
ATOM     10  O   UNL     1      -1.166  -0.700   0.009  0.00  0.00    +0.000 OA
ATOM     11  C   UNL     1      -1.072  -2.126   0.000  0.00  0.00    +0.000 C 
ENDBRANCH   9  10
BRANCH   6  12
ATOM     12  O   UNL     1       3.549   2.108  -0.021  0.00  0.00    +0.000 OA
ATOM     13  C   UNL     1       4.758   1.347  -0.036  0.00  0.00    +0.000 C 
ENDBRANCH   6  12
ENDBRANCH   1   4
BRANCH   1  14
ATOM     14  C   UNL     1      -2.330   1.832  -1.566  0.00  0.00    +0.000 C 
BRANCH  14  15
ATOM     15  C   UNL     1      -3.687   2.532  -1.666  0.00  0.00    +0.000 C 
BRANCH  15  16
ATOM     16  O   UNL     1      -3.492   3.948  -1.696  0.00  0.00    +0.000 OA
ATOM     17  H   UNL     1      -4.369   4.402  -1.760  0.00  0.00    +0.000 HD
ENDBRANCH  15  16
BRANCH  15  18
ATOM     18  C   UNL     1      -4.396   2.089  -2.947  0.00  0.00    +0.000 C 
BRANCH  18  20
ATOM     19  C   UNL     1      -6.410   2.358  -4.265  0.00  0.00    +0.000 C 
ATOM     20  N   UNL     1      -5.699   2.761  -3.044  0.00  0.00    +0.000 N 
ATOM     21  H   UNL     1      -5.554   3.781  -3.056  0.00  0.00    +0.000 HD
ATOM     22  H   UNL     1      -6.269   2.516  -2.221  0.00  0.00    +0.000 HD
ENDBRANCH  18  20
ENDBRANCH  15  18
ENDBRANCH  14  15
ENDBRANCH   1  14
TORSDOF 8
ENDMDL
MODEL      809
REMARK  Name = ZINC19752184
REMARK  10 active torsions:
REMARK  status: ('A' for Active; 'I' for Inactive)
REMARK    1  A    between atoms: C_1  and  C_2
REMARK    2  A    between atoms: C_2  and  C_3
REMARK    3  A    between atoms: C_2  and  N_21
REMARK    4  A    between atoms: C_7  and  O_19
REMARK    5  A    between atoms: C_8  and  O_17
REMARK    6  A    between atoms: N_11  and  C_12
REMARK    7  A    between atoms: C_12  and  C_13
REMARK    8  A    between atoms: C_13  and  C_14
REMARK    9  A    between atoms: O_17  and  C_18
REMARK   10  A    between atoms: O_19  and  C_20
REMARK                            x       y       z     vdW  Elec       q    Type
REMARK                         _______ _______ _______ _____ _____    ______ ____
ROOT
ATOM      1  C   UNL     1       1.498  -2.772   1.069  0.00  0.00    +0.000 A 
ATOM      2  N   UNL     1       1.506  -4.019   0.698  0.00  0.00    +0.000 NA
ATOM      3  C   UNL     1       1.494  -4.092  -0.659  0.00  0.00    +0.000 A 
ATOM      4  C   UNL     1       1.501  -5.157  -1.564  0.00  0.00    +0.000 A 
ATOM      5  C   UNL     1       1.487  -4.905  -2.920  0.00  0.00    +0.000 A 
ATOM      6  C   UNL     1       1.464  -3.591  -3.393  0.00  0.00    +0.000 A 
ATOM      7  C   UNL     1       1.457  -2.531  -2.507  0.00  0.00    +0.000 A 
ATOM      8  C   UNL     1       1.472  -2.773  -1.140  0.00  0.00    +0.000 A 
ATOM      9  N   UNL     1       1.471  -1.959  -0.022  0.00  0.00    +0.000 N 
ENDROOT
BRANCH   6  10
ATOM     10  O   UNL     1       1.450  -3.355  -4.733  0.00  0.00    +0.000 OA
ATOM     11  C   UNL     1       1.427  -1.988  -5.150  0.00  0.00    +0.000 C 
ENDBRANCH   6  10
BRANCH   5  12
ATOM     12  O   UNL     1       1.494  -5.941  -3.801  0.00  0.00    +0.000 OA
ATOM     13  C   UNL     1       1.518  -7.260  -3.251  0.00  0.00    +0.000 C 
ENDBRANCH   5  12
BRANCH   1  15
ATOM     14  C   UNL     1       2.917  -2.472   3.080  0.00  0.00    +0.000 C 
ATOM     15  C   UNL     1       1.513  -2.297   2.499  0.00  0.00    +0.000 C 
BRANCH  15  16
ATOM     16  N   UNL     1       0.555  -3.084   3.287  0.00  0.00    +0.000 N 
ATOM     17  H   UNL     1       0.565  -2.760   4.264  0.00  0.00    +0.000 HD
ATOM     18  H   UNL     1       0.819  -4.080   3.253  0.00  0.00    +0.000 HD
ATOM     19  H   UNL     1      -0.390  -2.967   2.896  0.00  0.00    +0.000 HD
ENDBRANCH  15  16
ENDBRANCH   1  15
BRANCH   9  20
ATOM     20  C   UNL     1       1.451  -0.494  -0.015  0.00  0.00    +0.000 C 
BRANCH  20  21
ATOM     21  C   UNL     1       0.002  -0.004   0.002  0.00  0.00    +0.000 C 
BRANCH  21  22
ATOM     22  C   UNL     1      -0.018   1.503   0.010  0.00  0.00    +0.000 C 
ATOM     23  O   UNL     1       1.020   2.121   0.004  0.00  0.00    +0.000 OA
ATOM     24  O   UNL     1      -1.190   2.158   0.019  0.00  0.00    +0.000 OA
ENDBRANCH  21  22
ENDBRANCH  20  21
ENDBRANCH   9  20
TORSDOF 7
ENDMDL
MODEL      810
REMARK  Name = ZINC12733774
REMARK  10 active torsions:
REMARK  status: ('A' for Active; 'I' for Inactive)
REMARK    1  A    between atoms: C_1  and  N_21
REMARK    2  A    between atoms: C_2  and  N_21
REMARK    3  A    between atoms: C_3  and  C_4
REMARK    4  A    between atoms: C_3  and  N_21
REMARK    5  A    between atoms: C_4  and  C_5
REMARK    6  A    between atoms: C_5  and  N_6
REMARK    7  A    between atoms: N_9  and  C_10
REMARK    8  A    between atoms: C_13  and  O_19
REMARK    9  A    between atoms: C_15  and  N_16
REMARK   10  A    between atoms: O_19  and  C_20
REMARK                            x       y       z     vdW  Elec       q    Type
REMARK                         _______ _______ _______ _____ _____    ______ ____
ROOT
ATOM      1  N   UNL     1       0.000   1.347  -0.027  0.00  0.00    +0.000 N 
ATOM      2  C   UNL     1       0.014  -0.001  -0.016  0.00  0.00    +0.000 C 
ATOM      3  O   UNL     1      -1.033  -0.619   0.005  0.00  0.00    +0.000 OA
ATOM      4  N   UNL     1       1.188  -0.663  -0.028  0.00  0.00    +0.000 N 
ATOM      5  H   UNL     1       0.887   1.871  -0.041  0.00  0.00    +0.000 HD
ATOM      6  H   UNL     1       2.072  -0.142  -0.115  0.00  0.00    +0.000 HD
ENDROOT
BRANCH   4   7
ATOM      7  C   UNL     1       1.205  -2.060   0.078  0.00  0.00    +0.000 A 
ATOM      8  C   UNL     1       0.197  -2.814  -0.508  0.00  0.00    +0.000 A 
ATOM      9  C   UNL     1       0.215  -4.191  -0.404  0.00  0.00    +0.000 A 
ATOM     10  C   UNL     1       1.240  -4.821   0.286  0.00  0.00    +0.000 A 
ATOM     11  C   UNL     1       2.248  -4.069   0.872  0.00  0.00    +0.000 A 
ATOM     12  C   UNL     1       2.234  -2.692   0.764  0.00  0.00    +0.000 A 
BRANCH  12  13
ATOM     13  N   UNL     1       3.312  -1.890   1.383  0.00  0.00    +0.000 N 
ATOM     14  O   UNL     1       4.265  -2.446   1.899  0.00  0.00    +0.000 OA
ATOM     15  O   UNL     1       3.247  -0.674   1.377  0.00  0.00    +0.000 OA
ENDBRANCH  12  13
BRANCH  10  16
ATOM     16  O   UNL     1       1.257  -6.177   0.389  0.00  0.00    +0.000 OA
ATOM     17  C   UNL     1       0.188  -6.888  -0.238  0.00  0.00    +0.000 C 
ENDBRANCH  10  16
ENDBRANCH   4   7
BRANCH   1  18
ATOM     18  C   UNL     1      -1.276   2.067  -0.020  0.00  0.00    +0.000 C 
BRANCH  18  19
ATOM     19  C   UNL     1      -1.011   3.573  -0.036  0.00  0.00    +0.000 C 
BRANCH  19  20
ATOM     20  C   UNL     1      -2.344   4.325  -0.028  0.00  0.00    +0.000 C 
BRANCH  20  23
ATOM     21  C   UNL     1      -1.464   6.183  -1.307  0.00  0.00    +0.000 C 
ATOM     22  C   UNL     1      -3.327   6.526   0.201  0.00  0.00    +0.000 C 
ATOM     23  N   UNL     1      -2.072   5.778  -0.022  0.00  0.00    +0.000 N 
ATOM     24  H   UNL     1      -1.415   5.992   0.741  0.00  0.00    +0.000 HD
ENDBRANCH  20  23
ENDBRANCH  19  20
ENDBRANCH  18  19
ENDBRANCH   1  18
TORSDOF 7
ENDMDL
MODEL      811
REMARK  Name = ZINC23475635
REMARK  9 active torsions:
REMARK  status: ('A' for Active; 'I' for Inactive)
REMARK    1  A    between atoms: C_1  and  C_2
REMARK    2  A    between atoms: C_2  and  C_22
REMARK    3  A    between atoms: N_5  and  C_9
REMARK    4  A    between atoms: C_9  and  N_10
REMARK    5  A    between atoms: N_13  and  C_16
REMARK    6  A    between atoms: C_16  and  C_17
REMARK    7  A    between atoms: C_25  and  O_28
REMARK    8  A    between atoms: O_28  and  C_29
REMARK    9  A    between atoms: C_29  and  C_30
REMARK                            x       y       z     vdW  Elec       q    Type
REMARK                         _______ _______ _______ _____ _____    ______ ____
ROOT
ATOM      1  C   UNL     1       1.761  -1.221   1.235  0.00  0.00    +0.000 C 
ATOM      2  C   UNL     1       1.419  -0.406  -0.014  0.00  0.00    +0.000 C 
ATOM      3  C   UNL     1       2.164   0.914  -0.014  0.00  0.00    +0.000 C 
ATOM      4  O   UNL     1       3.365   1.077  -0.025  0.00  0.00    +0.000 OA
ATOM      5  N   UNL     1       1.213   1.869   0.001  0.00  0.00    +0.000 N 
ATOM      6  C   UNL     1      -0.016   1.341   0.009  0.00  0.00    +0.000 C 
ATOM      7  O   UNL     1      -1.036   2.003   0.018  0.00  0.00    +0.000 OA
ATOM      8  N   UNL     1       0.002  -0.004   0.002  0.00  0.00    +0.000 NA
ENDROOT
BRANCH   2   9
ATOM      9  C   UNL     1       1.734  -1.192  -1.260  0.00  0.00    +0.000 A 
ATOM     10  C   UNL     1       2.993  -1.115  -1.825  0.00  0.00    +0.000 A 
ATOM     11  C   UNL     1       3.285  -1.840  -2.965  0.00  0.00    +0.000 A 
ATOM     12  C   UNL     1       2.310  -2.635  -3.549  0.00  0.00    +0.000 A 
ATOM     13  C   UNL     1       1.046  -2.706  -2.983  0.00  0.00    +0.000 A 
ATOM     14  C   UNL     1       0.760  -1.985  -1.840  0.00  0.00    +0.000 A 
BRANCH  12  15
ATOM     15  O   UNL     1       2.594  -3.345  -4.673  0.00  0.00    +0.000 OA
BRANCH  15  16
ATOM     16  C   UNL     1       3.917  -3.224  -5.200  0.00  0.00    +0.000 C 
BRANCH  16  17
ATOM     17  C   UNL     1       4.044  -4.075  -6.437  0.00  0.00    +0.000 C 
ATOM     18  O   UNL     1       3.096  -4.721  -6.829  0.00  0.00    +0.000 OA
ATOM     19  N   UNL     1       5.212  -4.117  -7.108  0.00  0.00    +0.000 N 
ATOM     20  H   UNL     1       6.018  -3.568  -6.776  0.00  0.00    +0.000 HD
ATOM     21  H   UNL     1       5.300  -4.699  -7.954  0.00  0.00    +0.000 HD
ENDBRANCH  16  17
ENDBRANCH  15  16
ENDBRANCH  12  15
ENDBRANCH   2   9
BRANCH   5  22
ATOM     22  C   UNL     1       1.491   3.307   0.005  0.00  0.00    +0.000 C 
BRANCH  22  23
ATOM     23  N   UNL     1       1.598   3.781   1.391  0.00  0.00    +0.000 NA
ATOM     24  C   UNL     1       0.268   4.014   1.971  0.00  0.00    +0.000 C 
ATOM     25  C   UNL     1       0.419   4.430   3.437  0.00  0.00    +0.000 C 
ATOM     26  N   UNL     1       1.245   5.643   3.516  0.00  0.00    +0.000 N 
ATOM     27  C   UNL     1       2.575   5.410   2.936  0.00  0.00    +0.000 C 
ATOM     28  C   UNL     1       2.424   4.994   1.471  0.00  0.00    +0.000 C 
ATOM     29  H   UNL     1       0.782   6.379   2.965  0.00  0.00    +0.000 HD
BRANCH  26  30
ATOM     30  C   UNL     1       1.351   6.117   4.903  0.00  0.00    +0.000 C 
BRANCH  30  31
ATOM     31  C   UNL     1      -0.002   6.576   5.382  0.00  0.00    +0.000 A 
ATOM     32  C   UNL     1      -0.975   5.864   6.001  0.00  0.00    +0.000 A 
ATOM     33  C   UNL     1      -2.149   6.502   6.355  0.00  0.00    +0.000 A 
ATOM     34  C   UNL     1      -2.293   7.819   6.072  0.00  0.00    +0.000 A 
ATOM     35  S   UNL     1      -0.736   8.201   5.287  0.00  0.00    +0.000 S 
ENDBRANCH  30  31
ENDBRANCH  26  30
ENDBRANCH  22  23
ENDBRANCH   5  22
TORSDOF 8
ENDMDL
MODEL      812
REMARK  Name = ZINC31229550
REMARK  9 active torsions:
REMARK  status: ('A' for Active; 'I' for Inactive)
REMARK    1  A    between atoms: C_1  and  C_2
REMARK    2  A    between atoms: C_2  and  C_3
REMARK    3  A    between atoms: C_3  and  C_4
REMARK    4  A    between atoms: C_3  and  N_28
REMARK    5  A    between atoms: C_4  and  N_5
REMARK    6  A    between atoms: C_6  and  C_8
REMARK    7  A    between atoms: C_11  and  N_14
REMARK    8  A    between atoms: N_14  and  S_15
REMARK    9  A    between atoms: S_15  and  C_18
REMARK                            x       y       z     vdW  Elec       q    Type
REMARK                         _______ _______ _______ _____ _____    ______ ____
ROOT
ATOM      1  C   UNL     1       4.640  -2.680  -4.965  0.00  0.00    +0.000 A 
ATOM      2  C   UNL     1       4.213  -3.982  -5.245  0.00  0.00    +0.000 A 
ATOM      3  C   UNL     1       3.271  -4.582  -4.442  0.00  0.00    +0.000 A 
ATOM      4  C   UNL     1       2.742  -3.896  -3.353  0.00  0.00    +0.000 A 
ATOM      5  C   UNL     1       3.160  -2.597  -3.075  0.00  0.00    +0.000 A 
ATOM      6  C   UNL     1       4.107  -1.993  -3.871  0.00  0.00    +0.000 A 
ENDROOT
BRANCH   1   8
ATOM      7  N   UNL     1       6.061  -0.778  -5.553  0.00  0.00    +0.000 N 
ATOM      8  C   UNL     1       5.651  -2.033  -5.824  0.00  0.00    +0.000 C 
ATOM      9  O   UNL     1       6.114  -2.632  -6.775  0.00  0.00    +0.000 OA
ATOM     10  H   UNL     1       5.668  -0.271  -4.747  0.00  0.00    +0.000 HD
BRANCH   7  11
ATOM     11  C   UNL     1       7.064  -0.135  -6.405  0.00  0.00    +0.000 C 
BRANCH  11  12
ATOM     12  C   UNL     1       7.262   1.314  -5.956  0.00  0.00    +0.000 C 
BRANCH  12  13
ATOM     13  N   UNL     1       7.628   1.341  -4.534  0.00  0.00    +0.000 N 
ATOM     14  C   UNL     1       9.089   1.145  -4.356  0.00  0.00    +0.000 C 
ATOM     15  C   UNL     1       9.354   1.715  -2.940  0.00  0.00    +0.000 C 
ATOM     16  C   UNL     1       8.406   2.934  -2.875  0.00  0.00    +0.000 C 
ATOM     17  C   UNL     1       7.321   2.657  -3.933  0.00  0.00    +0.000 C 
ATOM     18  H   UNL     1       7.090   0.587  -4.083  0.00  0.00    +0.000 HD
ENDBRANCH  12  13
BRANCH  12  20
ATOM     19  C   UNL     1       8.529   3.425  -6.381  0.00  0.00    +0.000 C 
ATOM     20  C   UNL     1       8.378   1.956  -6.782  0.00  0.00    +0.000 C 
ENDBRANCH  12  20
ENDBRANCH  11  12
ENDBRANCH   7  11
ENDBRANCH   1   8
BRANCH   4  21
ATOM     21  N   UNL     1       1.790  -4.505  -2.544  0.00  0.00    +0.000 N 
ATOM     22  H   UNL     1       0.800  -4.230  -2.617  0.00  0.00    +0.000 HD
BRANCH  21  23
ATOM     23  S   UNL     1       2.247  -5.674  -1.464  0.00  0.00    +0.000 S 
ATOM     24  O   UNL     1       3.043  -6.604  -2.185  0.00  0.00    +0.000 OA
ATOM     25  O   UNL     1       1.074  -6.060  -0.761  0.00  0.00    +0.000 OA
BRANCH  23  26
ATOM     26  C   UNL     1       3.310  -4.908  -0.286  0.00  0.00    +0.000 A 
ATOM     27  C   UNL     1       2.769  -4.250   0.806  0.00  0.00    +0.000 A 
ATOM     28  C   UNL     1       3.594  -3.647   1.734  0.00  0.00    +0.000 A 
ATOM     29  C   UNL     1       4.971  -3.699   1.572  0.00  0.00    +0.000 A 
ATOM     30  C   UNL     1       5.516  -4.362   0.471  0.00  0.00    +0.000 A 
ATOM     31  C   UNL     1       4.680  -4.965  -0.456  0.00  0.00    +0.000 A 
ATOM     32  N   UNL     1       6.900  -4.247   0.577  0.00  0.00    +0.000 N 
ATOM     33  C   UNL     1       7.184  -3.547   1.692  0.00  0.00    +0.000 A 
ATOM     34  O   UNL     1       8.303  -3.268   2.078  0.00  0.00    +0.000 OA
ATOM     35  N   UNL     1       6.040  -3.202   2.313  0.00  0.00    +0.000 N 
ATOM     36  H   UNL     1       7.590  -4.633  -0.084  0.00  0.00    +0.000 HD
ATOM     37  H   UNL     1       5.968  -2.663   3.188  0.00  0.00    +0.000 HD
ENDBRANCH  23  26
ENDBRANCH  21  23
ENDBRANCH   4  21
TORSDOF 8
ENDMDL
MODEL      813
REMARK  Name = ZINC22409194
REMARK  10 active torsions:
REMARK  status: ('A' for Active; 'I' for Inactive)
REMARK    1  A    between atoms: C_1  and  C_2
REMARK    2  A    between atoms: C_6  and  S_8
REMARK    3  A    between atoms: S_8  and  C_9
REMARK    4  A    between atoms: C_9  and  C_10
REMARK    5  A    between atoms: C_10  and  C_11
REMARK    6  A    between atoms: C_11  and  N_12
REMARK    7  A    between atoms: N_19  and  C_32
REMARK    8  A    between atoms: N_26  and  C_29
REMARK    9  A    between atoms: C_29  and  C_30
REMARK   10  A    between atoms: C_30  and  O_31
REMARK                            x       y       z     vdW  Elec       q    Type
REMARK                         _______ _______ _______ _____ _____    ______ ____
ROOT
ATOM      1  N   UNL     1      -7.614   4.115   5.304  0.00  0.00    +0.000 N 
ATOM      2  C   UNL     1      -8.162   5.290   4.806  0.00  0.00    +0.000 A 
ATOM      3  C   UNL     1      -7.628   6.502   4.333  0.00  0.00    +0.000 A 
ATOM      4  O   UNL     1      -6.421   6.674   4.306  0.00  0.00    +0.000 OA
ATOM      5  N   UNL     1      -8.464   7.471   3.909  0.00  0.00    +0.000 N 
ATOM      6  C   UNL     1      -9.797   7.295   3.932  0.00  0.00    +0.000 A 
ATOM      7  O   UNL     1     -10.520   8.191   3.542  0.00  0.00    +0.000 OA
ATOM      8  N   UNL     1     -10.349   6.148   4.370  0.00  0.00    +0.000 N 
ATOM      9  C   UNL     1      -9.542   5.117   4.823  0.00  0.00    +0.000 A 
ATOM     10  N   UNL     1      -9.789   3.902   5.316  0.00  0.00    +0.000 NA
ATOM     11  C   UNL     1      -8.656   3.296   5.606  0.00  0.00    +0.000 A 
ATOM     12  N   UNL     1      -8.544   2.029   6.132  0.00  0.00    +0.000 N 
ATOM     13  C   UNL     1      -8.061   1.079   5.121  0.00  0.00    +0.000 C 
ATOM     14  C   UNL     1      -7.875  -0.297   5.765  0.00  0.00    +0.000 C 
ATOM     15  N   UNL     1      -9.153  -0.745   6.336  0.00  0.00    +0.000 NA
ATOM     16  C   UNL     1      -9.636   0.206   7.348  0.00  0.00    +0.000 C 
ATOM     17  C   UNL     1      -9.822   1.582   6.703  0.00  0.00    +0.000 C 
ATOM     18  C   UNL     1     -11.806   5.995   4.382  0.00  0.00    +0.000 C 
ATOM     19  H   UNL     1      -8.076   8.360   3.561  0.00  0.00    +0.000 HD
ENDROOT
BRANCH  15  20
ATOM     20  C   UNL     1      -9.034  -2.096   6.898  0.00  0.00    +0.000 C 
BRANCH  20  21
ATOM     21  C   UNL     1     -10.424  -2.723   7.019  0.00  0.00    +0.000 C 
BRANCH  21  22
ATOM     22  O   UNL     1     -10.984  -2.896   5.715  0.00  0.00    +0.000 OA
ATOM     23  H   UNL     1     -10.400  -3.491   5.181  0.00  0.00    +0.000 HD
ENDBRANCH  21  22
ENDBRANCH  20  21
ENDBRANCH  15  20
BRANCH   1  24
ATOM     24  C   UNL     1      -6.190   3.819   5.477  0.00  0.00    +0.000 C 
BRANCH  24  25
ATOM     25  C   UNL     1      -5.603   3.346   4.145  0.00  0.00    +0.000 C 
BRANCH  25  26
ATOM     26  C   UNL     1      -4.152   2.909   4.355  0.00  0.00    +0.000 C 
BRANCH  26  27
ATOM     27  S   UNL     1      -3.457   2.349   2.780  0.00  0.00    +0.000 S 
BRANCH  27  33
ATOM     28  C   UNL     1       1.233   0.579   1.746  0.00  0.00    +0.000 C 
ATOM     29  C   UNL     1       0.261   1.114   2.766  0.00  0.00    +0.000 A 
ATOM     30  C   UNL     1       0.644   1.263   4.090  0.00  0.00    +0.000 A 
ATOM     31  C   UNL     1      -0.281   1.758   4.996  0.00  0.00    +0.000 A 
ATOM     32  N   UNL     1      -1.494   2.072   4.573  0.00  0.00    +0.000 NA
ATOM     33  C   UNL     1      -1.829   1.918   3.300  0.00  0.00    +0.000 A 
ATOM     34  N   UNL     1      -0.967   1.452   2.407  0.00  0.00    +0.000 NA
ENDBRANCH  27  33
ENDBRANCH  26  27
ENDBRANCH  25  26
ENDBRANCH  24  25
ENDBRANCH   1  24
TORSDOF 8
ENDMDL
MODEL      814
REMARK  Name = ZINC15636405
REMARK  8 active torsions:
REMARK  status: ('A' for Active; 'I' for Inactive)
REMARK    1  A    between atoms: C_4  and  C_7
REMARK    2  A    between atoms: C_7  and  C_21
REMARK    3  A    between atoms: N_8  and  N_9
REMARK    4  A    between atoms: C_10  and  C_12
REMARK    5  A    between atoms: C_16  and  N_18
REMARK    6  A    between atoms: C_21  and  C_22
REMARK    7  A    between atoms: C_22  and  C_23
REMARK    8  A    between atoms: C_22  and  C_31
REMARK                            x       y       z     vdW  Elec       q    Type
REMARK                         _______ _______ _______ _____ _____    ______ ____
ROOT
ATOM      1  C   UNL     1      -2.395   8.015  -0.028  0.00  0.00    +0.000 C 
ATOM      2  N   UNL     1      -1.274   7.392  -0.226  0.00  0.00    +0.000 NA
ENDROOT
BRANCH   1   6
ATOM      3  C   UNL     1      -6.048   5.855  -0.007  0.00  0.00    +0.000 A 
ATOM      4  C   UNL     1      -5.840   6.864   0.916  0.00  0.00    +0.000 A 
ATOM      5  C   UNL     1      -4.655   7.571   0.915  0.00  0.00    +0.000 A 
ATOM      6  C   UNL     1      -3.664   7.265  -0.021  0.00  0.00    +0.000 A 
ATOM      7  C   UNL     1      -3.884   6.249  -0.954  0.00  0.00    +0.000 A 
ATOM      8  C   UNL     1      -5.071   5.547  -0.938  0.00  0.00    +0.000 A 
ENDBRANCH   1   6
BRANCH   2   9
ATOM      9  N   UNL     1      -1.253   5.994  -0.302  0.00  0.00    +0.000 N 
ATOM     10  C   UNL     1      -0.120   5.354  -0.652  0.00  0.00    +0.000 C 
ATOM     11  O   UNL     1       0.885   5.991  -0.902  0.00  0.00    +0.000 OA
ATOM     12  H   UNL     1      -2.105   5.454  -0.090  0.00  0.00    +0.000 HD
BRANCH  10  13
ATOM     13  C   UNL     1      -0.099   3.878  -0.733  0.00  0.00    +0.000 A 
ATOM     14  C   UNL     1      -1.251   3.144  -0.445  0.00  0.00    +0.000 A 
ATOM     15  C   UNL     1      -1.226   1.767  -0.527  0.00  0.00    +0.000 A 
ATOM     16  C   UNL     1      -0.059   1.113  -0.882  0.00  0.00    +0.000 A 
ATOM     17  C   UNL     1       1.086   1.835  -1.168  0.00  0.00    +0.000 A 
ATOM     18  C   UNL     1       1.073   3.213  -1.095  0.00  0.00    +0.000 A 
BRANCH  17  19
ATOM     19  N   UNL     1       2.328   1.128  -1.552  0.00  0.00    +0.000 N 
ATOM     20  O   UNL     1       2.341  -0.089  -1.617  0.00  0.00    +0.000 OA
ATOM     21  O   UNL     1       3.337   1.762  -1.805  0.00  0.00    +0.000 OA
ENDBRANCH  17  19
ENDBRANCH  10  13
ENDBRANCH   2   9
BRANCH   1  22
ATOM     22  C   UNL     1      -2.399   9.506   0.195  0.00  0.00    +0.000 C 
BRANCH  22  23
ATOM     23  C   UNL     1      -3.128  10.192  -0.962  0.00  0.00    +0.000 C 
BRANCH  23  24
ATOM     24  C   UNL     1      -3.241  11.668  -0.679  0.00  0.00    +0.000 C 
ATOM     25  C   UNL     1      -4.368  12.381  -0.567  0.00  0.00    +0.000 C 
ATOM     26  C   UNL     1      -2.797  13.955  -0.940  0.00  0.00    +0.000 C 
ATOM     27  C   UNL     1      -2.116  12.628  -0.462  0.00  0.00    +0.000 C 
ATOM     28  C   UNL     1      -0.862  12.502  -1.254  0.00  0.00    +0.000 C 
ATOM     29  C   UNL     1      -0.130  13.633  -1.336  0.00  0.00    +0.000 C 
ATOM     30  C   UNL     1      -0.595  14.856  -0.649  0.00  0.00    +0.000 C 
ATOM     31  C   UNL     1      -1.925  15.068  -0.467  0.00  0.00    +0.000 C 
ATOM     32  N   UNL     1      -4.080  13.718  -0.340  0.00  0.00    +0.000 NA
ATOM     33  H   UNL     1      -4.791  14.312  -0.789  0.00  0.00    +0.000 HD
ATOM     34  H   UNL     1      -4.032  13.902   0.672  0.00  0.00    +0.000 HD
ENDBRANCH  23  24
BRANCH  23  35
ATOM     35  C   UNL     1      -2.355   9.982  -2.238  0.00  0.00    +0.000 C 
ATOM     36  O   UNL     1      -1.326   9.349  -2.224  0.00  0.00    +0.000 OA
ATOM     37  O   UNL     1      -2.809  10.499  -3.390  0.00  0.00    +0.000 OA
ENDBRANCH  23  35
ENDBRANCH  22  23
ENDBRANCH   1  22
TORSDOF 8
ENDMDL
MODEL      815
REMARK  Name = ZINC19925920
REMARK  9 active torsions:
REMARK  status: ('A' for Active; 'I' for Inactive)
REMARK    1  A    between atoms: C_1  and  O_2
REMARK    2  A    between atoms: O_2  and  C_3
REMARK    3  A    between atoms: C_7  and  C_11
REMARK    4  A    between atoms: C_8  and  O_9
REMARK    5  A    between atoms: O_9  and  C_10
REMARK    6  A    between atoms: N_12  and  N_13
REMARK    7  A    between atoms: C_14  and  C_16
REMARK    8  A    between atoms: C_17  and  C_27
REMARK    9  A    between atoms: C_27  and  N_28
REMARK                            x       y       z     vdW  Elec       q    Type
REMARK                         _______ _______ _______ _____ _____    ______ ____
ROOT
ATOM      1  C   UNL     1      -4.842   0.995   0.014  0.00  0.00    +0.000 A 
ATOM      2  C   UNL     1      -6.071   1.602  -0.024  0.00  0.00    +0.000 A 
ATOM      3  N   UNL     1      -6.975   0.623  -0.000  0.00  0.00    +0.000 NA
ATOM      4  N   UNL     1      -6.376  -0.513   0.049  0.00  0.00    +0.000 NA
ATOM      5  N   UNL     1      -5.099  -0.354   0.054  0.00  0.00    +0.000 N 
ATOM      6  C   UNL     1      -4.143  -1.373   0.097  0.00  0.00    +0.000 A 
ATOM      7  C   UNL     1      -4.418  -2.811   0.026  0.00  0.00    +0.000 A 
ATOM      8  N   UNL     1      -3.282  -3.449   0.095  0.00  0.00    +0.000 NA
ATOM      9  O   UNL     1      -2.249  -2.487   0.210  0.00  0.00    +0.000 OA
ATOM     10  N   UNL     1      -2.854  -1.206   0.200  0.00  0.00    +0.000 NA
ATOM     11  N   UNL     1      -5.674  -3.394  -0.093  0.00  0.00    +0.000 N 
ATOM     12  H   UNL     1      -6.468  -2.739  -0.134  0.00  0.00    +0.000 HD
ATOM     13  H   UNL     1      -5.819  -4.413  -0.139  0.00  0.00    +0.000 HD
ENDROOT
BRANCH   1  15
ATOM     14  N   UNL     1      -2.811   1.715  -1.133  0.00  0.00    +0.000 N 
ATOM     15  C   UNL     1      -3.525   1.650   0.008  0.00  0.00    +0.000 C 
ATOM     16  O   UNL     1      -3.081   2.133   1.032  0.00  0.00    +0.000 OA
ATOM     17  H   UNL     1      -3.156   1.248  -1.984  0.00  0.00    +0.000 HD
BRANCH  14  19
ATOM     18  C   UNL     1      -0.909   2.478  -2.260  0.00  0.00    +0.000 C 
ATOM     19  N   UNL     1      -1.598   2.416  -1.161  0.00  0.00    +0.000 NA
BRANCH  18  24
ATOM     20  C   UNL     1       2.037   4.553  -1.177  0.00  0.00    +0.000 A 
ATOM     21  C   UNL     1       2.761   4.619  -2.357  0.00  0.00    +0.000 A 
ATOM     22  C   UNL     1       2.294   3.991  -3.499  0.00  0.00    +0.000 A 
ATOM     23  C   UNL     1       1.104   3.295  -3.474  0.00  0.00    +0.000 A 
ATOM     24  C   UNL     1       0.363   3.221  -2.291  0.00  0.00    +0.000 A 
ATOM     25  C   UNL     1       0.833   3.861  -1.138  0.00  0.00    +0.000 A 
BRANCH  25  26
ATOM     26  O   UNL     1       0.117   3.800   0.016  0.00  0.00    +0.000 OA
ATOM     27  C   UNL     1       0.401   2.713   0.899  0.00  0.00    +0.000 C 
ENDBRANCH  25  26
BRANCH  20  29
ATOM     28  C   UNL     1       3.743   5.871  -0.173  0.00  0.00    +0.000 C 
ATOM     29  O   UNL     1       2.502   5.172  -0.059  0.00  0.00    +0.000 OA
ENDBRANCH  20  29
ENDBRANCH  18  24
ENDBRANCH  14  19
ENDBRANCH   1  15
BRANCH   2  30
ATOM     30  C   UNL     1      -6.344   3.083  -0.083  0.00  0.00    +0.000 C 
BRANCH  30  31
ATOM     31  N   UNL     1      -6.415   3.513  -1.486  0.00  0.00    +0.000 NA
ATOM     32  C   UNL     1      -5.108   3.379  -2.145  0.00  0.00    +0.000 C 
ATOM     33  C   UNL     1      -5.240   3.780  -3.616  0.00  0.00    +0.000 C 
ATOM     34  O   UNL     1      -5.754   5.112  -3.698  0.00  0.00    +0.000 OA
ATOM     35  C   UNL     1      -7.027   5.278  -3.067  0.00  0.00    +0.000 C 
ATOM     36  C   UNL     1      -6.912   4.892  -1.590  0.00  0.00    +0.000 C 
ENDBRANCH  30  31
ENDBRANCH   2  30
TORSDOF 7
ENDMDL
MODEL      816
REMARK  Name = ZINC16523591
REMARK  8 active torsions:
REMARK  status: ('A' for Active; 'I' for Inactive)
REMARK    1  A    between atoms: C_4  and  S_8
REMARK    2  A    between atoms: S_8  and  N_11
REMARK    3  A    between atoms: C_16  and  C_17
REMARK    4  A    between atoms: C_16  and  N_27
REMARK    5  A    between atoms: C_17  and  S_18
REMARK    6  A    between atoms: S_18  and  C_21
REMARK    7  A    between atoms: C_21  and  C_22
REMARK    8  A    between atoms: C_22  and  C_23
REMARK                            x       y       z     vdW  Elec       q    Type
REMARK                         _______ _______ _______ _____ _____    ______ ____
ROOT
ATOM      1  N   UNL     1       0.338   4.331  -1.350  0.00  0.00    +0.000 NA
ATOM      2  C   UNL     1       1.049   4.532  -2.621  0.00  0.00    +0.000 C 
ATOM      3  C   UNL     1       0.312   3.745  -3.716  0.00  0.00    +0.000 C 
ATOM      4  C   UNL     1      -1.764   3.793  -2.463  0.00  0.00    +0.000 C 
ATOM      5  C   UNL     1      -1.112   4.576  -1.318  0.00  0.00    +0.000 C 
ATOM      6  N   UNL     1      -1.105   4.170  -3.732  0.00  0.00    +0.000 NA
ENDROOT
BRANCH   1   7
ATOM      7  S   UNL     1       1.148   3.849   0.011  0.00  0.00    +0.000 S 
ATOM      8  O   UNL     1       2.394   3.322  -0.424  0.00  0.00    +0.000 OA
ATOM      9  O   UNL     1       0.229   3.090   0.784  0.00  0.00    +0.000 OA
BRANCH   7  13
ATOM     10  C   UNL     1       2.083   7.579   2.403  0.00  0.00    +0.000 A 
ATOM     11  C   UNL     1       2.681   7.379   1.173  0.00  0.00    +0.000 A 
ATOM     12  C   UNL     1       2.395   6.240   0.442  0.00  0.00    +0.000 A 
ATOM     13  C   UNL     1       1.512   5.300   0.943  0.00  0.00    +0.000 A 
ATOM     14  C   UNL     1       0.915   5.499   2.172  0.00  0.00    +0.000 A 
ATOM     15  C   UNL     1       1.200   6.639   2.904  0.00  0.00    +0.000 A 
ATOM     16 CL   UNL     1       0.450   6.889   4.449  0.00  0.00    +0.000 Cl
ATOM     17 CL   UNL     1       3.140   5.993  -1.107  0.00  0.00    +0.000 Cl
ENDBRANCH   7  13
ENDBRANCH   1   7
BRANCH   6  18
ATOM     18  C   UNL     1      -1.807   3.543  -4.871  0.00  0.00    +0.000 C 
BRANCH  18  19
ATOM     19  C   UNL     1      -1.249   4.122  -6.172  0.00  0.00    +0.000 C 
BRANCH  19  20
ATOM     20  S   UNL     1      -2.118   3.385  -7.583  0.00  0.00    +0.000 S 
ATOM     21  O   UNL     1      -1.815   1.998  -7.623  0.00  0.00    +0.000 OA
ATOM     22  O   UNL     1      -3.478   3.795  -7.537  0.00  0.00    +0.000 OA
BRANCH  20  23
ATOM     23  C   UNL     1      -1.326   4.186  -9.005  0.00  0.00    +0.000 C 
BRANCH  23  24
ATOM     24  C   UNL     1      -1.954   3.667 -10.299  0.00  0.00    +0.000 C 
BRANCH  24  25
ATOM     25  C   UNL     1      -1.296   4.332 -11.480  0.00  0.00    +0.000 C 
ATOM     26  O   UNL     1      -0.411   5.142 -11.304  0.00  0.00    +0.000 OA
ATOM     27  N   UNL     1      -1.691   4.027 -12.732  0.00  0.00    +0.000 N 
ATOM     28  H   UNL     1      -2.442   3.339 -12.882  0.00  0.00    +0.000 HD
ATOM     29  H   UNL     1      -1.241   4.482 -13.540  0.00  0.00    +0.000 HD
ENDBRANCH  24  25
ENDBRANCH  23  24
ENDBRANCH  20  23
ENDBRANCH  19  20
ENDBRANCH  18  19
ENDBRANCH   6  18
TORSDOF 8
ENDMDL
MODEL      817
REMARK  Name = ZINC31091392
REMARK  10 active torsions:
REMARK  status: ('A' for Active; 'I' for Inactive)
REMARK    1  A    between atoms: C_1  and  C_2
REMARK    2  A    between atoms: C_6  and  C_8
REMARK    3  A    between atoms: C_8  and  C_9
REMARK    4  A    between atoms: C_8  and  N_30
REMARK    5  A    between atoms: C_9  and  C_10
REMARK    6  A    between atoms: C_10  and  O_12
REMARK    7  A    between atoms: O_12  and  C_13
REMARK    8  A    between atoms: C_13  and  C_14
REMARK    9  A    between atoms: N_16  and  N_17
REMARK   10  A    between atoms: C_23  and  C_26
REMARK                            x       y       z     vdW  Elec       q    Type
REMARK                         _______ _______ _______ _____ _____    ______ ____
ROOT
ATOM      1  O   UNL     1       2.431   0.899   0.117  0.00  0.00    +0.000 OA
ENDROOT
BRANCH   1   2
ATOM      2  C   UNL     1       3.640   1.480   0.068  0.00  0.00    +0.000 C 
ATOM      3  O   UNL     1       3.734   2.684   0.081  0.00  0.00    +0.000 OA
BRANCH   2   4
ATOM      4  C   UNL     1       4.882   0.628  -0.005  0.00  0.00    +0.000 C 
BRANCH   4   5
ATOM      5  C   UNL     1       6.117   1.531  -0.051  0.00  0.00    +0.000 C 
BRANCH   5   6
ATOM      6  N   UNL     1       6.228   2.272   1.208  0.00  0.00    +0.000 N 
ATOM      7  C   UNL     1       6.399   1.608   2.368  0.00  0.00    +0.000 C 
ATOM      8  O   UNL     1       6.546   0.401   2.362  0.00  0.00    +0.000 OA
ATOM      9  N   UNL     1       6.407   2.281   3.535  0.00  0.00    +0.000 N 
ATOM     10  H   UNL     1       6.175   3.300   1.206  0.00  0.00    +0.000 HD
ATOM     11  H   UNL     1       6.283   3.304   3.541  0.00  0.00    +0.000 HD
ATOM     12  H   UNL     1       6.538   1.774   4.422  0.00  0.00    +0.000 HD
ENDBRANCH   5   6
BRANCH   5  18
ATOM     13  C   UNL     1       8.245  -2.759  -1.507  0.00  0.00    +0.000 C 
ATOM     14  C   UNL     1       8.367  -1.366  -0.943  0.00  0.00    +0.000 A 
ATOM     15  C   UNL     1       9.610  -0.864  -0.606  0.00  0.00    +0.000 A 
ATOM     16  C   UNL     1       9.723   0.413  -0.089  0.00  0.00    +0.000 A 
ATOM     17  C   UNL     1       8.593   1.190   0.085  0.00  0.00    +0.000 A 
ATOM     18  C   UNL     1       7.349   0.686  -0.247  0.00  0.00    +0.000 A 
ATOM     19  C   UNL     1       7.237  -0.592  -0.763  0.00  0.00    +0.000 A 
ENDBRANCH   5  18
ENDBRANCH   4   5
ENDBRANCH   2   4
ENDBRANCH   1   2
BRANCH   1  20
ATOM     20  C   UNL     1       1.279   1.781   0.186  0.00  0.00    +0.000 C 
BRANCH  20  21
ATOM     21  C   UNL     1       0.018   0.957   0.234  0.00  0.00    +0.000 C 
ATOM     22  O   UNL     1       0.084  -0.254   0.214  0.00  0.00    +0.000 OA
ATOM     23  N   UNL     1      -1.183   1.566   0.296  0.00  0.00    +0.000 N 
ATOM     24  H   UNL     1      -1.238   2.594   0.313  0.00  0.00    +0.000 HD
BRANCH  23  25
ATOM     25  N   UNL     1      -2.355   0.800   0.335  0.00  0.00    +0.000 N 
ATOM     26  C   UNL     1      -3.100   0.612   1.444  0.00  0.00    +0.000 C 
ATOM     27  O   UNL     1      -2.892   1.055   2.553  0.00  0.00    +0.000 OA
ATOM     28  C   UNL     1      -4.251  -0.269   1.012  0.00  0.00    +0.000 C 
ATOM     29  C   UNL     1      -5.578   0.453   1.217  0.00  0.00    +0.000 C 
ATOM     30  C   UNL     1      -6.727  -0.443   0.748  0.00  0.00    +0.000 C 
ATOM     31  C   UNL     1      -6.710  -1.750   1.543  0.00  0.00    +0.000 C 
ATOM     32  C   UNL     1      -5.383  -2.474   1.307  0.00  0.00    +0.000 C 
ATOM     33  C   UNL     1      -4.228  -1.586   1.778  0.00  0.00    +0.000 C 
ATOM     34  C   UNL     1      -7.866  -2.641   1.083  0.00  0.00    +0.000 C 
ATOM     35  N   UNL     1      -4.006  -0.499  -0.418  0.00  0.00    +0.000 NA
ATOM     36  C   UNL     1      -2.878   0.170  -0.724  0.00  0.00    +0.000 C 
ATOM     37  O   UNL     1      -2.388   0.195  -1.836  0.00  0.00    +0.000 OA
ENDBRANCH  23  25
ENDBRANCH  20  21
ENDBRANCH   1  20
TORSDOF 8
ENDMDL
MODEL      818
REMARK  Name = ZINC12801698
REMARK  7 active torsions:
REMARK  status: ('A' for Active; 'I' for Inactive)
REMARK    1  A    between atoms: C_5  and  N_7
REMARK    2  A    between atoms: C_8  and  C_10
REMARK    3  A    between atoms: C_10  and  S_11
REMARK    4  A    between atoms: S_11  and  C_12
REMARK    5  A    between atoms: C_12  and  C_13
REMARK    6  A    between atoms: N_15  and  N_16
REMARK    7  A    between atoms: C_17  and  C_19
REMARK                            x       y       z     vdW  Elec       q    Type
REMARK                         _______ _______ _______ _____ _____    ______ ____
ROOT
ATOM      1  C   UNL     1       5.383   1.041   0.006  0.00  0.00    +0.000 C 
ATOM      2  O   UNL     1       5.292  -0.169  -0.004  0.00  0.00    +0.000 OA
ATOM      3  N   UNL     1       6.597   1.625   0.009  0.00  0.00    +0.000 N 
ATOM      4  H   UNL     1       6.675   2.652   0.017  0.00  0.00    +0.000 HD
ENDROOT
BRANCH   3   5
ATOM      5  N   UNL     1       7.755   0.835   0.001  0.00  0.00    +0.000 N 
ATOM      6  C   UNL     1       8.969   1.420   0.003  0.00  0.00    +0.000 C 
ATOM      7  O   UNL     1       9.060   2.633   0.013  0.00  0.00    +0.000 OA
ATOM      8  H   UNL     1       7.677  -0.192  -0.008  0.00  0.00    +0.000 HD
BRANCH   6   9
ATOM      9  C   UNL     1      10.185   0.590  -0.005  0.00  0.00    +0.000 A 
ATOM     10  C   UNL     1      11.426   1.175  -0.002  0.00  0.00    +0.000 A 
ATOM     11  S   UNL     1      12.476  -0.273  -0.016  0.00  0.00    +0.000 S 
ATOM     12  C   UNL     1      11.175  -1.498  -0.025  0.00  0.00    +0.000 A 
ATOM     13  N   UNL     1      10.096  -0.742  -0.011  0.00  0.00    +0.000 NA
ATOM     14  N   UNL     1      11.275  -2.879  -0.037  0.00  0.00    +0.000 N 
ATOM     15  C   UNL     1      10.556  -3.469   1.101  0.00  0.00    +0.000 C 
ATOM     16  C   UNL     1      10.642  -4.995   1.016  0.00  0.00    +0.000 C 
ATOM     17  O   UNL     1      12.016  -5.389   0.981  0.00  0.00    +0.000 OA
ATOM     18  C   UNL     1      12.746  -4.833  -0.116  0.00  0.00    +0.000 C 
ATOM     19  C   UNL     1      12.682  -3.305  -0.042  0.00  0.00    +0.000 C 
ENDBRANCH   6   9
ENDBRANCH   3   5
BRANCH   1  20
ATOM     20  C   UNL     1       4.138   1.890   0.015  0.00  0.00    +0.000 C 
BRANCH  20  21
ATOM     21  S   UNL     1       2.675   0.818   0.009  0.00  0.00    +0.000 S 
BRANCH  21  22
ATOM     22  C   UNL     1       1.280   1.979   0.020  0.00  0.00    +0.000 C 
BRANCH  22  24
ATOM     23  N   UNL     1      -1.191   1.867   0.018  0.00  0.00    +0.000 N 
ATOM     24  C   UNL     1      -0.015   1.208   0.016  0.00  0.00    +0.000 C 
ATOM     25  O   UNL     1       0.001  -0.005   0.006  0.00  0.00    +0.000 OA
ATOM     26  H   UNL     1      -1.206   2.894   0.095  0.00  0.00    +0.000 HD
BRANCH  23  31
ATOM     27  C   UNL     1      -3.699  -0.796   0.400  0.00  0.00    +0.000 A 
ATOM     28  C   UNL     1      -4.767  -0.253  -0.291  0.00  0.00    +0.000 A 
ATOM     29  C   UNL     1      -4.652   0.992  -0.880  0.00  0.00    +0.000 A 
ATOM     30  C   UNL     1      -3.467   1.699  -0.780  0.00  0.00    +0.000 A 
ATOM     31  C   UNL     1      -2.392   1.155  -0.086  0.00  0.00    +0.000 A 
ATOM     32  C   UNL     1      -2.511  -0.099   0.499  0.00  0.00    +0.000 A 
ATOM     33  F   UNL     1      -3.354   2.916  -1.356  0.00  0.00    +0.000 F 
ENDBRANCH  23  31
ENDBRANCH  22  24
ENDBRANCH  21  22
ENDBRANCH  20  21
ENDBRANCH   1  20
TORSDOF 7
ENDMDL
MODEL      819
REMARK  Name = ZINC25395401
REMARK  11 active torsions:
REMARK  status: ('A' for Active; 'I' for Inactive)
REMARK    1  A    between atoms: C_1  and  C_2
REMARK    2  A    between atoms: C_2  and  C_3
REMARK    3  A    between atoms: C_2  and  C_4
REMARK    4  A    between atoms: C_4  and  N_5
REMARK    5  A    between atoms: N_5  and  C_6
REMARK    6  A    between atoms: C_7  and  N_21
REMARK    7  A    between atoms: N_8  and  C_14
REMARK    8  A    between atoms: C_14  and  C_15
REMARK    9  A    between atoms: C_22  and  C_24
REMARK   10  A    between atoms: C_24  and  N_25
REMARK   11  A    between atoms: C_29  and  C_31
REMARK                            x       y       z     vdW  Elec       q    Type
REMARK                         _______ _______ _______ _____ _____    ______ ____
ROOT
ATOM      1  N   UNL     1       5.724   2.322  -4.114  0.00  0.00    +0.000 N 
ATOM      2  C   UNL     1       6.151   1.055  -3.931  0.00  0.00    +0.000 C 
ATOM      3  O   UNL     1       5.652   0.366  -3.066  0.00  0.00    +0.000 OA
ENDROOT
BRANCH   1   4
ATOM      4  C   UNL     1       4.751   2.870  -3.252  0.00  0.00    +0.000 A 
ATOM      5  C   UNL     1       3.495   3.191  -3.725  0.00  0.00    +0.000 A 
ATOM      6  N   UNL     1       2.570   3.729  -2.861  0.00  0.00    +0.000 N 
ATOM      7  C   UNL     1       2.881   3.929  -1.567  0.00  0.00    +0.000 A 
ATOM      8  O   UNL     1       2.047   4.400  -0.819  0.00  0.00    +0.000 OA
ATOM      9  N   UNL     1       4.098   3.616  -1.087  0.00  0.00    +0.000 N 
ATOM     10  C   UNL     1       5.042   3.092  -1.893  0.00  0.00    +0.000 A 
ATOM     11  O   UNL     1       6.143   2.813  -1.447  0.00  0.00    +0.000 OA
ATOM     12  H   UNL     1       4.309   3.778  -0.092  0.00  0.00    +0.000 HD
BRANCH   5  13
ATOM     13  N   UNL     1       3.175   2.981  -5.045  0.00  0.00    +0.000 N 
ATOM     14  H   UNL     1       3.877   2.582  -5.683  0.00  0.00    +0.000 HD
ATOM     15  H   UNL     1       2.236   3.222  -5.394  0.00  0.00    +0.000 HD
ENDBRANCH   5  13
BRANCH   6  16
ATOM     16  C   UNL     1       1.234   4.080  -3.351  0.00  0.00    +0.000 C 
BRANCH  16  17
ATOM     17  C   UNL     1       1.236   5.509  -3.832  0.00  0.00    +0.000 A 
ATOM     18  C   UNL     1       1.542   5.794  -5.149  0.00  0.00    +0.000 A 
ATOM     19  C   UNL     1       1.542   7.104  -5.590  0.00  0.00    +0.000 A 
ATOM     20  C   UNL     1       1.242   8.129  -4.713  0.00  0.00    +0.000 A 
ATOM     21  C   UNL     1       0.932   7.843  -3.396  0.00  0.00    +0.000 A 
ATOM     22  C   UNL     1       0.930   6.533  -2.955  0.00  0.00    +0.000 A 
ENDBRANCH  16  17
ENDBRANCH   6  16
ENDBRANCH   1   4
BRANCH   2  23
ATOM     23  C   UNL     1       7.248   0.497  -4.801  0.00  0.00    +0.000 C 
BRANCH  23  24
ATOM     24  N   UNL     1       7.403  -0.939  -4.532  0.00  0.00    +0.000 N 
ATOM     25  C   UNL     1       6.129  -1.648  -4.707  0.00  0.00    +0.000 C 
ATOM     26  C   UNL     1       6.294  -3.108  -4.279  0.00  0.00    +0.000 C 
ATOM     27  C   UNL     1       7.385  -3.764  -5.129  0.00  0.00    +0.000 C 
ATOM     28  C   UNL     1       8.689  -2.978  -4.967  0.00  0.00    +0.000 C 
ATOM     29  C   UNL     1       8.455  -1.522  -5.375  0.00  0.00    +0.000 C 
ATOM     30  H   UNL     1       7.691  -1.048  -3.549  0.00  0.00    +0.000 HD
BRANCH  28  31
ATOM     31  C   UNL     1       9.754  -3.582  -5.846  0.00  0.00    +0.000 C 
ATOM     32  O   UNL     1      10.274  -2.914  -6.714  0.00  0.00    +0.000 OA
ATOM     33  N   UNL     1      10.127  -4.865  -5.668  0.00  0.00    +0.000 N 
ATOM     34  H   UNL     1       9.684  -5.432  -4.931  0.00  0.00    +0.000 HD
ATOM     35  H   UNL     1      10.854  -5.277  -6.269  0.00  0.00    +0.000 HD
ENDBRANCH  28  31
ENDBRANCH  23  24
ENDBRANCH   2  23
BRANCH   1  36
ATOM     36  C   UNL     1       6.271   3.129  -5.208  0.00  0.00    +0.000 C 
BRANCH  36  38
ATOM     37  C   UNL     1       8.539   3.183  -4.161  0.00  0.00    +0.000 C 
ATOM     38  C   UNL     1       7.376   4.039  -4.667  0.00  0.00    +0.000 C 
ATOM     39  C   UNL     1       7.869   4.961  -5.784  0.00  0.00    +0.000 C 
ENDBRANCH  36  38
ENDBRANCH   1  36
TORSDOF 9
ENDMDL
MODEL      820
REMARK  Name = ZINC15939612
REMARK  10 active torsions:
REMARK  status: ('A' for Active; 'I' for Inactive)
REMARK    1  A    between atoms: C_1  and  C_2
REMARK    2  A    between atoms: C_2  and  N_3
REMARK    3  A    between atoms: C_12  and  C_14
REMARK    4  A    between atoms: N_16  and  N_17
REMARK    5  A    between atoms: C_18  and  C_20
REMARK    6  A    between atoms: C_20  and  S_21
REMARK    7  A    between atoms: S_21  and  C_22
REMARK    8  A    between atoms: C_22  and  C_23
REMARK    9  A    between atoms: C_22  and  C_24
REMARK   10  A    between atoms: C_29  and  C_32
REMARK                            x       y       z     vdW  Elec       q    Type
REMARK                         _______ _______ _______ _____ _____    ______ ____
ROOT
ATOM      1  N   UNL     1      -0.288   1.272  -2.443  0.00  0.00    +0.000 N 
ATOM      2  C   UNL     1      -0.742   1.585  -1.213  0.00  0.00    +0.000 C 
ATOM      3  O   UNL     1      -1.736   2.268  -1.088  0.00  0.00    +0.000 OA
ATOM      4  H   UNL     1       0.556   0.692  -2.549  0.00  0.00    +0.000 HD
ENDROOT
BRANCH   1   7
ATOM      5  C   UNL     1      -0.513   1.424  -4.808  0.00  0.00    +0.000 C 
ATOM      6  O   UNL     1       0.484   0.739  -4.933  0.00  0.00    +0.000 OA
ATOM      7  N   UNL     1      -0.966   1.736  -3.578  0.00  0.00    +0.000 N 
ATOM      8  H   UNL     1      -1.811   2.317  -3.472  0.00  0.00    +0.000 HD
BRANCH   5  18
ATOM      9  N   UNL     1      -2.977   3.114  -6.862  0.00  0.00    +0.000 N 
ATOM     10  C   UNL     1      -2.658   2.893  -8.154  0.00  0.00    +0.000 A 
ATOM     11  O   UNL     1      -3.337   3.358  -9.052  0.00  0.00    +0.000 OA
ATOM     12  C   UNL     1      -1.472   2.078  -8.453  0.00  0.00    +0.000 A 
ATOM     13  C   UNL     1      -1.058   1.793  -9.750  0.00  0.00    +0.000 A 
ATOM     14  C   UNL     1       0.067   1.020  -9.945  0.00  0.00    +0.000 A 
ATOM     15  C   UNL     1       0.786   0.528  -8.864  0.00  0.00    +0.000 A 
ATOM     16  C   UNL     1       0.392   0.799  -7.571  0.00  0.00    +0.000 A 
ATOM     17  C   UNL     1      -0.736   1.581  -7.352  0.00  0.00    +0.000 A 
ATOM     18  C   UNL     1      -1.227   1.913  -6.004  0.00  0.00    +0.000 A 
ATOM     19  N   UNL     1      -2.303   2.652  -5.879  0.00  0.00    +0.000 NA
BRANCH   9  21
ATOM     20  C   UNL     1      -5.389   3.022  -6.466  0.00  0.00    +0.000 C 
ATOM     21  C   UNL     1      -4.160   3.928  -6.570  0.00  0.00    +0.000 C 
ENDBRANCH   9  21
ENDBRANCH   5  18
ENDBRANCH   1   7
BRANCH   2  22
ATOM     22  C   UNL     1      -0.013   1.086   0.008  0.00  0.00    +0.000 C 
BRANCH  22  23
ATOM     23  S   UNL     1      -0.862   1.671   1.500  0.00  0.00    +0.000 S 
BRANCH  23  24
ATOM     24  C   UNL     1       0.127   0.993   2.862  0.00  0.00    +0.000 C 
ATOM     25  C   UNL     1       1.522   1.621   2.841  0.00  0.00    +0.000 C 
BRANCH  24  26
ATOM     26  C   UNL     1      -0.544   1.306   4.174  0.00  0.00    +0.000 C 
ATOM     27  O   UNL     1      -1.357   2.203   4.241  0.00  0.00    +0.000 OA
ATOM     28  N   UNL     1      -0.241   0.588   5.274  0.00  0.00    +0.000 N 
ATOM     29  C   UNL     1      -0.863   0.877   6.489  0.00  0.00    +0.000 A 
ATOM     30  C   UNL     1      -1.830   1.889   6.733  0.00  0.00    +0.000 A 
ATOM     31  C   UNL     1      -2.113   1.759   8.049  0.00  0.00    +0.000 A 
ATOM     32  O   UNL     1      -1.358   0.749   8.506  0.00  0.00    +0.000 OA
ATOM     33  N   UNL     1      -0.676   0.268   7.631  0.00  0.00    +0.000 NA
ATOM     34  C   UNL     1      -3.087   2.588   8.846  0.00  0.00    +0.000 C 
ATOM     35  H   UNL     1       0.449  -0.174   5.218  0.00  0.00    +0.000 HD
ENDBRANCH  24  26
ENDBRANCH  23  24
ENDBRANCH  22  23
ENDBRANCH   2  22
TORSDOF 7
ENDMDL
MODEL      821
REMARK  Name = ZINC23496372
REMARK  12 active torsions:
REMARK  status: ('A' for Active; 'I' for Inactive)
REMARK    1  A    between atoms: C_1  and  O_2
REMARK    2  A    between atoms: O_2  and  C_3
REMARK    3  A    between atoms: C_6  and  N_9
REMARK    4  A    between atoms: C_13  and  C_15
REMARK    5  A    between atoms: C_15  and  S_16
REMARK    6  A    between atoms: S_16  and  C_17
REMARK    7  A    between atoms: C_20  and  C_23
REMARK    8  A    between atoms: N_21  and  N_22
REMARK    9  A    between atoms: C_26  and  O_31
REMARK   10  A    between atoms: C_27  and  O_29
REMARK   11  A    between atoms: O_29  and  C_30
REMARK   12  A    between atoms: O_31  and  C_32
REMARK                            x       y       z     vdW  Elec       q    Type
REMARK                         _______ _______ _______ _____ _____    ______ ____
ROOT
ATOM      1  S   UNL     1      -1.949  -0.339   0.177  0.00  0.00    +0.000 S 
ENDROOT
BRANCH   1   2
ATOM      2  C   UNL     1      -1.782  -2.090   0.062  0.00  0.00    +0.000 A 
ATOM      3  N   UNL     1      -0.660  -2.758  -0.076  0.00  0.00    +0.000 NA
ATOM      4  N   UNL     1      -0.901  -4.020  -0.127  0.00  0.00    +0.000 NA
ATOM      5  C   UNL     1      -2.192  -4.234  -0.025  0.00  0.00    +0.000 A 
ATOM      6  N   UNL     1      -2.796  -3.005   0.105  0.00  0.00    +0.000 N 
BRANCH   5   7
ATOM      7  C   UNL     1      -2.868  -5.548  -0.040  0.00  0.00    +0.000 A 
ATOM      8  C   UNL     1      -4.241  -5.626  -0.283  0.00  0.00    +0.000 A 
ATOM      9  C   UNL     1      -4.870  -6.853  -0.298  0.00  0.00    +0.000 A 
ATOM     10  C   UNL     1      -4.143  -8.012  -0.071  0.00  0.00    +0.000 A 
ATOM     11  C   UNL     1      -2.773  -7.942   0.173  0.00  0.00    +0.000 A 
ATOM     12  C   UNL     1      -2.135  -6.715   0.182  0.00  0.00    +0.000 A 
BRANCH  11  13
ATOM     13  O   UNL     1      -2.063  -9.080   0.396  0.00  0.00    +0.000 OA
ATOM     14  C   UNL     1      -0.663  -8.933   0.639  0.00  0.00    +0.000 C 
ENDBRANCH  11  13
BRANCH  10  15
ATOM     15  O   UNL     1      -4.768  -9.219  -0.086  0.00  0.00    +0.000 OA
ATOM     16  C   UNL     1      -6.174  -9.219  -0.342  0.00  0.00    +0.000 C 
ENDBRANCH  10  15
ENDBRANCH   5   7
BRANCH   6  17
ATOM     17  N   UNL     1      -4.131  -2.752   0.245  0.00  0.00    +0.000 N 
ATOM     18  H   UNL     1      -4.377  -1.755   0.326  0.00  0.00    +0.000 HD
ATOM     19  H   UNL     1      -4.852  -3.487   0.271  0.00  0.00    +0.000 HD
ENDBRANCH   6  17
ENDBRANCH   1   2
BRANCH   1  20
ATOM     20  C   UNL     1      -0.211   0.151   0.051  0.00  0.00    +0.000 C 
BRANCH  20  25
ATOM     21  N   UNL     1       2.402   4.186   0.049  0.00  0.00    +0.000 N 
ATOM     22  C   UNL     1       1.196   3.590   0.123  0.00  0.00    +0.000 C 
ATOM     23  O   UNL     1       0.192   4.264   0.251  0.00  0.00    +0.000 OA
ATOM     24  N   UNL     1       1.101   2.247   0.054  0.00  0.00    +0.000 N 
ATOM     25  C   UNL     1      -0.106   1.652   0.127  0.00  0.00    +0.000 C 
ATOM     26  O   UNL     1      -1.107   2.325   0.250  0.00  0.00    +0.000 OA
ATOM     27  H   UNL     1       3.244   3.622  -0.139  0.00  0.00    +0.000 HD
ATOM     28  H   UNL     1       1.952   1.676  -0.054  0.00  0.00    +0.000 HD
BRANCH  21  32
ATOM     29  C   UNL     1       2.730   8.308   0.586  0.00  0.00    +0.000 A 
ATOM     30  C   UNL     1       1.687   7.612   1.179  0.00  0.00    +0.000 A 
ATOM     31  C   UNL     1       1.577   6.247   1.002  0.00  0.00    +0.000 A 
ATOM     32  C   UNL     1       2.512   5.571   0.229  0.00  0.00    +0.000 A 
ATOM     33  C   UNL     1       3.559   6.267  -0.360  0.00  0.00    +0.000 A 
ATOM     34  C   UNL     1       3.664   7.633  -0.186  0.00  0.00    +0.000 A 
BRANCH  29  36
ATOM     35  C   UNL     1       3.936  10.304   0.122  0.00  0.00    +0.000 C 
ATOM     36  O   UNL     1       2.837   9.652   0.761  0.00  0.00    +0.000 OA
ENDBRANCH  29  36
ENDBRANCH  21  32
ENDBRANCH  20  25
ENDBRANCH   1  20
TORSDOF 9
ENDMDL
MODEL      822
REMARK  Name = ZINC29635426
REMARK  12 active torsions:
REMARK  status: ('A' for Active; 'I' for Inactive)
REMARK    1  A    between atoms: C_1  and  C_2
REMARK    2  A    between atoms: C_2  and  N_3
REMARK    3  A    between atoms: N_3  and  C_4
REMARK    4  A    between atoms: N_3  and  S_6
REMARK    5  A    between atoms: C_4  and  C_5
REMARK    6  A    between atoms: S_6  and  C_9
REMARK    7  A    between atoms: C_11  and  C_14
REMARK    8  A    between atoms: N_16  and  N_17
REMARK    9  A    between atoms: C_18  and  C_20
REMARK   10  A    between atoms: C_22  and  C_32
REMARK   11  A    between atoms: N_23  and  C_26
REMARK   12  A    between atoms: C_24  and  C_25
REMARK                            x       y       z     vdW  Elec       q    Type
REMARK                         _______ _______ _______ _____ _____    ______ ____
ROOT
ATOM      1  C   UNL     1       1.825  -1.770  -0.025  0.00  0.00    +0.000 C 
ATOM      2  O   UNL     1       1.042  -2.701  -0.022  0.00  0.00    +0.000 OA
ATOM      3  N   UNL     1       3.152  -2.006  -0.039  0.00  0.00    +0.000 N 
ATOM      4  H   UNL     1       3.815  -1.218  -0.041  0.00  0.00    +0.000 HD
ENDROOT
BRANCH   1   7
ATOM      5  C   UNL     1      -0.017   1.394   0.010  0.00  0.00    +0.000 A 
ATOM      6  C   UNL     1       0.002  -0.004   0.002  0.00  0.00    +0.000 A 
ATOM      7  C   UNL     1       1.325  -0.391  -0.013  0.00  0.00    +0.000 A 
ATOM      8  N   UNL     1       2.092   0.752  -0.014  0.00  0.00    +0.000 N 
ATOM      9  C   UNL     1       1.266   1.827  -0.000  0.00  0.00    +0.000 A 
ATOM     10  H   UNL     1       3.121   0.785  -0.024  0.00  0.00    +0.000 HD
BRANCH   5  11
ATOM     11  S   UNL     1      -1.455   2.412   0.022  0.00  0.00    +0.000 S 
ATOM     12  O   UNL     1      -1.070   3.666  -0.524  0.00  0.00    +0.000 OA
ATOM     13  O   UNL     1      -2.509   1.633  -0.528  0.00  0.00    +0.000 OA
BRANCH  11  14
ATOM     14  N   UNL     1      -1.847   2.686   1.608  0.00  0.00    +0.000 NA
BRANCH  14  15
ATOM     15  C   UNL     1      -2.753   1.772   2.307  0.00  0.00    +0.000 C 
ATOM     16  C   UNL     1      -1.936   0.728   3.070  0.00  0.00    +0.000 C 
ENDBRANCH  14  15
BRANCH  14  18
ATOM     17  C   UNL     1      -2.277   5.008   2.245  0.00  0.00    +0.000 C 
ATOM     18  C   UNL     1      -1.287   3.843   2.311  0.00  0.00    +0.000 C 
ENDBRANCH  14  18
ENDBRANCH  11  14
ENDBRANCH   5  11
ENDBRANCH   1   7
BRANCH   3  19
ATOM     19  N   UNL     1       3.629  -3.323  -0.050  0.00  0.00    +0.000 N 
ATOM     20  C   UNL     1       4.956  -3.559  -0.064  0.00  0.00    +0.000 C 
ATOM     21  O   UNL     1       5.739  -2.628  -0.067  0.00  0.00    +0.000 OA
ATOM     22  H   UNL     1       2.966  -4.111  -0.048  0.00  0.00    +0.000 HD
BRANCH  20  23
ATOM     23  C   UNL     1       5.458  -4.943  -0.077  0.00  0.00    +0.000 A 
ATOM     24  C   UNL     1       4.656  -6.171  -0.076  0.00  0.00    +0.000 A 
ATOM     25  C   UNL     1       5.528  -7.194  -0.090  0.00  0.00    +0.000 A 
ATOM     26  N   UNL     1       6.799  -6.691  -0.100  0.00  0.00    +0.000 N 
ATOM     27  C   UNL     1       6.766  -5.343  -0.097  0.00  0.00    +0.000 A 
ATOM     28  C   UNL     1       7.966  -4.431  -0.110  0.00  0.00    +0.000 C 
ATOM     29  C   UNL     1       5.164  -8.657  -0.095  0.00  0.00    +0.000 C 
BRANCH  26  30
ATOM     30  C   UNL     1       7.968  -7.465  -0.116  0.00  0.00    +0.000 A 
ATOM     31  C   UNL     1       8.841  -7.427   0.963  0.00  0.00    +0.000 A 
ATOM     32  C   UNL     1       9.990  -8.194   0.946  0.00  0.00    +0.000 A 
ATOM     33  C   UNL     1      10.275  -8.991  -0.147  0.00  0.00    +0.000 A 
ATOM     34  C   UNL     1       9.409  -9.027  -1.225  0.00  0.00    +0.000 A 
ATOM     35  C   UNL     1       8.256  -8.266  -1.212  0.00  0.00    +0.000 A 
ENDBRANCH  26  30
ENDBRANCH  20  23
ENDBRANCH   3  19
TORSDOF 8
ENDMDL
MODEL      823
REMARK  Name = ZINC31126591
REMARK  11 active torsions:
REMARK  status: ('A' for Active; 'I' for Inactive)
REMARK    1  A    between atoms: C_1  and  C_2
REMARK    2  A    between atoms: C_2  and  N_3
REMARK    3  A    between atoms: C_6  and  C_13
REMARK    4  A    between atoms: C_8  and  C_10
REMARK    5  A    between atoms: C_10  and  C_11
REMARK    6  A    between atoms: C_10  and  C_12
REMARK    7  A    between atoms: C_13  and  O_15
REMARK    8  A    between atoms: O_15  and  C_16
REMARK    9  A    between atoms: C_16  and  C_17
REMARK   10  A    between atoms: N_22  and  C_23
REMARK   11  A    between atoms: C_23  and  C_24
REMARK                            x       y       z     vdW  Elec       q    Type
REMARK                         _______ _______ _______ _____ _____    ______ ____
ROOT
ATOM      1  N   UNL     1       1.191  -0.720  -0.529  0.00  0.00    +0.000 N 
ATOM      2  C   UNL     1       2.398  -0.091  -0.276  0.00  0.00    +0.000 A 
ATOM      3  C   UNL     1       2.434   1.314  -0.278  0.00  0.00    +0.000 A 
ATOM      4  C   UNL     1       3.647   1.974  -0.024  0.00  0.00    +0.000 A 
ATOM      5  C   UNL     1       4.774   1.187   0.222  0.00  0.00    +0.000 A 
ATOM      6  C   UNL     1       4.652  -0.193   0.206  0.00  0.00    +0.000 A 
ATOM      7  N   UNL     1       3.499  -0.783  -0.036  0.00  0.00    +0.000 NA
ATOM      8  C   UNL     1       1.188   2.050  -0.549  0.00  0.00    +0.000 A 
ATOM      9  O   UNL     1       1.170   3.266  -0.561  0.00  0.00    +0.000 OA
ATOM     10  N   UNL     1       0.064   1.337  -0.784  0.00  0.00    +0.000 N 
ATOM     11  C   UNL     1       0.080  -0.005  -0.772  0.00  0.00    +0.000 A 
ATOM     12  O   UNL     1      -0.957  -0.600  -0.990  0.00  0.00    +0.000 OA
ATOM     13  H   UNL     1      -0.819   1.832  -0.977  0.00  0.00    +0.000 HD
ENDROOT
BRANCH   6  14
ATOM     14  C   UNL     1       5.870  -1.041   0.471  0.00  0.00    +0.000 C 
ATOM     15  C   UNL     1       6.651  -1.233  -0.830  0.00  0.00    +0.000 C 
ATOM     16  C   UNL     1       6.760  -0.345   1.502  0.00  0.00    +0.000 C 
ENDBRANCH   6  14
BRANCH   1  18
ATOM     17  C   UNL     1       1.404  -2.703  -1.945  0.00  0.00    +0.000 C 
ATOM     18  C   UNL     1       1.125  -2.183  -0.533  0.00  0.00    +0.000 C 
ENDBRANCH   1  18
BRANCH   4  19
ATOM     19  C   UNL     1       3.728   3.453  -0.017  0.00  0.00    +0.000 C 
ATOM     20  O   UNL     1       3.308   4.089  -0.962  0.00  0.00    +0.000 OA
BRANCH  19  21
ATOM     21  O   UNL     1       4.268   4.093   1.038  0.00  0.00    +0.000 OA
BRANCH  21  22
ATOM     22  C   UNL     1       4.315   5.543   0.976  0.00  0.00    +0.000 C 
BRANCH  22  23
ATOM     23  C   UNL     1       4.947   6.080   2.234  0.00  0.00    +0.000 C 
ATOM     24  O   UNL     1       5.322   5.315   3.098  0.00  0.00    +0.000 OA
ATOM     25  N   UNL     1       5.097   7.409   2.399  0.00  0.00    +0.000 N 
ATOM     26  C   UNL     1       5.663   7.888   3.525  0.00  0.00    +0.000 C 
ATOM     27  O   UNL     1       6.038   7.122   4.391  0.00  0.00    +0.000 OA
ATOM     28  N   UNL     1       5.812   9.218   3.690  0.00  0.00    +0.000 N 
ATOM     29  H   UNL     1       4.779   8.058   1.666  0.00  0.00    +0.000 HD
ATOM     30  H   UNL     1       5.494   9.867   2.956  0.00  0.00    +0.000 HD
BRANCH  28  31
ATOM     31  C   UNL     1       6.427   9.739   4.913  0.00  0.00    +0.000 C 
BRANCH  31  32
ATOM     32  C   UNL     1       6.476  11.267   4.848  0.00  0.00    +0.000 C 
ATOM     33  F   UNL     1       5.177  11.771   4.728  0.00  0.00    +0.000 F 
ATOM     34  F   UNL     1       7.064  11.765   6.016  0.00  0.00    +0.000 F 
ATOM     35  F   UNL     1       7.234  11.662   3.740  0.00  0.00    +0.000 F 
ENDBRANCH  31  32
ENDBRANCH  28  31
ENDBRANCH  22  23
ENDBRANCH  21  22
ENDBRANCH  19  21
ENDBRANCH   4  19
TORSDOF 8
ENDMDL
MODEL      824
REMARK  Name = ZINC28887676
REMARK  10 active torsions:
REMARK  status: ('A' for Active; 'I' for Inactive)
REMARK    1  A    between atoms: C_1  and  O_2
REMARK    2  A    between atoms: O_2  and  C_3
REMARK    3  A    between atoms: C_8  and  N_9
REMARK    4  A    between atoms: N_9  and  S_10
REMARK    5  A    between atoms: S_10  and  C_13
REMARK    6  A    between atoms: C_16  and  O_32
REMARK    7  A    between atoms: C_17  and  N_19
REMARK    8  A    between atoms: C_20  and  C_22
REMARK    9  A    between atoms: N_26  and  C_28
REMARK   10  A    between atoms: C_28  and  C_29
REMARK                            x       y       z     vdW  Elec       q    Type
REMARK                         _______ _______ _______ _____ _____    ______ ____
ROOT
ATOM      1  C   UNL     1       3.798   2.520   0.145  0.00  0.00    +0.000 A 
ATOM      2  C   UNL     1       3.166   2.104  -1.013  0.00  0.00    +0.000 A 
ATOM      3  C   UNL     1       1.996   1.372  -0.942  0.00  0.00    +0.000 A 
ATOM      4  C   UNL     1       1.452   1.053   0.292  0.00  0.00    +0.000 A 
ATOM      5  C   UNL     1       2.085   1.476   1.459  0.00  0.00    +0.000 A 
ATOM      6  C   UNL     1       3.262   2.206   1.379  0.00  0.00    +0.000 A 
ENDROOT
BRANCH   5   7
ATOM      7  N   UNL     1       1.537   1.162   2.709  0.00  0.00    +0.000 N 
ATOM      8  C   UNL     1       2.330   1.103   3.797  0.00  0.00    +0.000 C 
ATOM      9  O   UNL     1       3.531   1.222   3.679  0.00  0.00    +0.000 OA
ATOM     10  H   UNL     1       0.527   0.975   2.797  0.00  0.00    +0.000 HD
BRANCH   8  11
ATOM     11  C   UNL     1       1.724   0.889   5.161  0.00  0.00    +0.000 C 
ATOM     12  C   UNL     1       0.983  -0.466   5.231  0.00  0.00    +0.000 C 
ATOM     13  C   UNL     1       1.261  -0.969   6.630  0.00  0.00    +0.000 C 
ATOM     14  O   UNL     1       0.644  -1.853   7.185  0.00  0.00    +0.000 OA
ATOM     15  N   UNL     1       2.292  -0.294   7.167  0.00  0.00    +0.000 N 
ATOM     16  C   UNL     1       2.823   0.703   6.231  0.00  0.00    +0.000 C 
BRANCH  15  17
ATOM     17  C   UNL     1       2.818  -0.525   8.515  0.00  0.00    +0.000 C 
BRANCH  17  18
ATOM     18  C   UNL     1       3.918  -1.586   8.459  0.00  0.00    +0.000 C 
ATOM     19  C   UNL     1       3.671  -2.901   9.201  0.00  0.00    +0.000 C 
ATOM     20  C   UNL     1       4.676  -1.887   9.753  0.00  0.00    +0.000 C 
ENDBRANCH  17  18
ENDBRANCH  15  17
ENDBRANCH   8  11
ENDBRANCH   5   7
BRANCH   1  21
ATOM     21  S   UNL     1       5.289   3.453   0.045  0.00  0.00    +0.000 S 
ATOM     22  O   UNL     1       5.975   3.254   1.274  0.00  0.00    +0.000 OA
ATOM     23  O   UNL     1       5.876   3.149  -1.213  0.00  0.00    +0.000 OA
BRANCH  21  24
ATOM     24  N   UNL     1       4.864   5.053  -0.005  0.00  0.00    +0.000 NA
BRANCH  24  30
ATOM     25  C   UNL     1       3.182   6.593   0.802  0.00  0.00    +0.000 A 
ATOM     26  C   UNL     1       2.474   7.151   1.855  0.00  0.00    +0.000 A 
ATOM     27  C   UNL     1       2.725   6.741   3.151  0.00  0.00    +0.000 A 
ATOM     28  C   UNL     1       3.682   5.775   3.402  0.00  0.00    +0.000 A 
ATOM     29  C   UNL     1       4.388   5.210   2.357  0.00  0.00    +0.000 A 
ATOM     30  C   UNL     1       4.146   5.620   1.054  0.00  0.00    +0.000 A 
BRANCH  25  32
ATOM     31  C   UNL     1       1.934   7.997  -0.656  0.00  0.00    +0.000 C 
ATOM     32  O   UNL     1       2.936   6.995  -0.473  0.00  0.00    +0.000 OA
ENDBRANCH  25  32
ENDBRANCH  24  30
ENDBRANCH  21  24
ENDBRANCH   1  21
BRANCH   4  33
ATOM     33  O   UNL     1       0.300   0.334   0.364  0.00  0.00    +0.000 OA
ATOM     34  H   UNL     1       0.487  -0.497  -0.141  0.00  0.00    +0.000 HD
ENDBRANCH   4  33
TORSDOF 9
ENDMDL
MODEL      825
REMARK  Name = ZINC16769863
REMARK  8 active torsions:
REMARK  status: ('A' for Active; 'I' for Inactive)
REMARK    1  A    between atoms: C_1  and  C_2
REMARK    2  A    between atoms: C_6  and  N_8
REMARK    3  A    between atoms: C_12  and  S_14
REMARK    4  A    between atoms: S_14  and  C_15
REMARK    5  A    between atoms: C_15  and  C_16
REMARK    6  A    between atoms: N_18  and  N_19
REMARK    7  A    between atoms: C_20  and  C_22
REMARK    8  A    between atoms: C_22  and  C_23
REMARK                            x       y       z     vdW  Elec       q    Type
REMARK                         _______ _______ _______ _____ _____    ______ ____
ROOT
ATOM      1  C   UNL     1      -4.740  -5.089   0.508  0.00  0.00    +0.000 C 
ENDROOT
BRANCH   1   2
ATOM      2  C   UNL     1      -5.809  -6.143   0.639  0.00  0.00    +0.000 C 
ATOM      3  O   UNL     1      -5.500  -7.314   0.707  0.00  0.00    +0.000 OA
ATOM      4  N   UNL     1      -7.107  -5.785   0.682  0.00  0.00    +0.000 N 
ATOM      5  H   UNL     1      -7.369  -4.790   0.624  0.00  0.00    +0.000 HD
BRANCH   4   6
ATOM      6  N   UNL     1      -8.101  -6.765   0.804  0.00  0.00    +0.000 N 
ATOM      7  C   UNL     1      -9.399  -6.407   0.847  0.00  0.00    +0.000 C 
ATOM      8  O   UNL     1      -9.708  -5.236   0.779  0.00  0.00    +0.000 OA
ATOM      9  H   UNL     1      -7.839  -7.759   0.862  0.00  0.00    +0.000 HD
BRANCH   7  10
ATOM     10  C   UNL     1     -10.468  -7.461   0.978  0.00  0.00    +0.000 C 
BRANCH  10  11
ATOM     11  C   UNL     1     -11.844  -6.792   1.002  0.00  0.00    +0.000 C 
ATOM     12  C   UNL     1     -12.101  -6.103  -0.348  0.00  0.00    +0.000 C 
ATOM     13  C   UNL     1     -13.604  -5.710  -0.413  0.00  0.00    +0.000 C 
ATOM     14  S   UNL     1     -14.377  -7.205   0.337  0.00  0.00    +0.000 S 
ATOM     15  O   UNL     1     -14.717  -8.117  -0.698  0.00  0.00    +0.000 OA
ATOM     16  O   UNL     1     -15.373  -6.795   1.264  0.00  0.00    +0.000 OA
ATOM     17  C   UNL     1     -12.931  -7.862   1.264  0.00  0.00    +0.000 C 
ENDBRANCH  10  11
ENDBRANCH   7  10
ENDBRANCH   4   6
ENDBRANCH   1   2
BRANCH   1  18
ATOM     18  S   UNL     1      -3.109  -5.882   0.479  0.00  0.00    +0.000 S 
BRANCH  18  23
ATOM     19  N   UNL     1       1.238  -2.078  -0.020  0.00  0.00    +0.000 N 
ATOM     20  C   UNL     1       0.051  -2.793   0.092  0.00  0.00    +0.000 A 
ATOM     21  N   UNL     1      -1.191  -2.350   0.131  0.00  0.00    +0.000 NA
ATOM     22  N   UNL     1      -2.232  -3.242   0.244  0.00  0.00    +0.000 NA
ATOM     23  C   UNL     1      -1.983  -4.535   0.324  0.00  0.00    +0.000 A 
ATOM     24  S   UNL     1      -0.199  -4.556   0.231  0.00  0.00    +0.000 S 
ATOM     25  H   UNL     1       2.132  -2.577  -0.127  0.00  0.00    +0.000 HD
BRANCH  19  31
ATOM     26  C   UNL     1       3.320   2.212  -1.215  0.00  0.00    +0.000 C 
ATOM     27  C   UNL     1       2.215   1.424  -0.560  0.00  0.00    +0.000 A 
ATOM     28  C   UNL     1       1.178   2.085   0.074  0.00  0.00    +0.000 A 
ATOM     29  C   UNL     1       0.162   1.367   0.677  0.00  0.00    +0.000 A 
ATOM     30  C   UNL     1       0.178  -0.014   0.647  0.00  0.00    +0.000 A 
ATOM     31  C   UNL     1       1.218  -0.681   0.011  0.00  0.00    +0.000 A 
ATOM     32  C   UNL     1       2.237   0.044  -0.593  0.00  0.00    +0.000 A 
ENDBRANCH  19  31
ENDBRANCH  18  23
ENDBRANCH   1  18
TORSDOF 7
ENDMDL
MODEL      826
REMARK  Name = ZINC20573659
REMARK  10 active torsions:
REMARK  status: ('A' for Active; 'I' for Inactive)
REMARK    1  A    between atoms: C_1  and  O_2
REMARK    2  A    between atoms: O_2  and  C_3
REMARK    3  A    between atoms: C_5  and  C_13
REMARK    4  A    between atoms: C_7  and  O_11
REMARK    5  A    between atoms: C_8  and  O_9
REMARK    6  A    between atoms: O_9  and  C_10
REMARK    7  A    between atoms: O_11  and  C_12
REMARK    8  A    between atoms: N_15  and  C_16
REMARK    9  A    between atoms: C_16  and  C_17
REMARK   10  A    between atoms: C_17  and  C_18
REMARK                            x       y       z     vdW  Elec       q    Type
REMARK                         _______ _______ _______ _____ _____    ______ ____
ROOT
ATOM      1  C   UNL     1       1.385   4.700   3.112  0.00  0.00    +0.000 C 
ATOM      2  O   UNL     1       1.226   5.878   2.873  0.00  0.00    +0.000 OA
ATOM      3  N   UNL     1       1.033   3.773   2.199  0.00  0.00    +0.000 N 
ATOM      4  C   UNL     1       0.458   4.175   0.908  0.00  0.00    +0.000 C 
ATOM      5  C   UNL     1       1.276   3.535  -0.218  0.00  0.00    +0.000 C 
ATOM      6  C   UNL     1       1.343   2.024   0.000  0.00  0.00    +0.000 C 
ATOM      7  C   UNL     1       2.031   1.722   1.332  0.00  0.00    +0.000 C 
ATOM      8  C   UNL     1       1.219   2.342   2.474  0.00  0.00    +0.000 C 
ATOM      9  C   UNL     1       2.115   1.383  -1.125  0.00  0.00    +0.000 A 
ATOM     10  C   UNL     1       1.718   0.247  -1.743  0.00  0.00    +0.000 A 
ATOM     11  N   UNL     1       2.641  -0.034  -2.699  0.00  0.00    +0.000 N 
ATOM     12  C   UNL     1       3.580   0.939  -2.639  0.00  0.00    +0.000 A 
ATOM     13  N   UNL     1       3.255   1.781  -1.692  0.00  0.00    +0.000 NA
ATOM     14  C   UNL     1       0.465  -0.506  -1.373  0.00  0.00    +0.000 C 
ATOM     15  C   UNL     1       0.002  -0.004   0.002  0.00  0.00    +0.000 C 
ATOM     16  N   UNL     1      -0.018   1.466   0.010  0.00  0.00    +0.000 N 
ATOM     17  H   UNL     1       2.628  -0.834  -3.347  0.00  0.00    +0.000 HD
ATOM     18  H   UNL     1      -0.511   1.792   0.853  0.00  0.00    +0.000 HD
ATOM     19  H   UNL     1      -0.528   1.801  -0.819  0.00  0.00    +0.000 HD
ENDROOT
BRANCH   1  20
ATOM     20  C   UNL     1       1.974   4.271   4.432  0.00  0.00    +0.000 C 
BRANCH  20  21
ATOM     21  C   UNL     1       2.282   5.508   5.278  0.00  0.00    +0.000 C 
BRANCH  21  24
ATOM     22  C   UNL     1       3.206   6.018   7.474  0.00  0.00    +0.000 C 
ATOM     23  O   UNL     1       3.047   7.199   7.234  0.00  0.00    +0.000 OA
ATOM     24  N   UNL     1       2.855   5.092   6.561  0.00  0.00    +0.000 N 
ATOM     25  H   UNL     1       2.989   4.091   6.764  0.00  0.00    +0.000 HD
BRANCH  22  28
ATOM     26  C   UNL     1       4.687   6.163  10.924  0.00  0.00    +0.000 A 
ATOM     27  C   UNL     1       4.147   6.558   9.714  0.00  0.00    +0.000 A 
ATOM     28  C   UNL     1       3.783   5.599   8.767  0.00  0.00    +0.000 A 
ATOM     29  C   UNL     1       3.960   4.242   9.046  0.00  0.00    +0.000 A 
ATOM     30  C   UNL     1       4.506   3.852  10.255  0.00  0.00    +0.000 A 
ATOM     31  C   UNL     1       4.868   4.809  11.198  0.00  0.00    +0.000 A 
BRANCH  30  32
ATOM     32  O   UNL     1       4.684   2.530  10.525  0.00  0.00    +0.000 OA
ATOM     33  C   UNL     1       4.290   1.602   9.513  0.00  0.00    +0.000 C 
ENDBRANCH  30  32
BRANCH  31  34
ATOM     34  O   UNL     1       5.398   4.423  12.388  0.00  0.00    +0.000 OA
ATOM     35  C   UNL     1       4.483   4.185  13.460  0.00  0.00    +0.000 C 
ENDBRANCH  31  34
BRANCH  26  37
ATOM     36  C   UNL     1       4.830   8.466  11.500  0.00  0.00    +0.000 C 
ATOM     37  O   UNL     1       5.043   7.096  11.847  0.00  0.00    +0.000 OA
ENDBRANCH  26  37
ENDBRANCH  22  28
ENDBRANCH  21  24
ENDBRANCH  20  21
ENDBRANCH   1  20
TORSDOF 7
ENDMDL
MODEL      827
REMARK  Name = ZINC29053846
REMARK  9 active torsions:
REMARK  status: ('A' for Active; 'I' for Inactive)
REMARK    1  A    between atoms: C_1  and  O_2
REMARK    2  A    between atoms: O_2  and  C_3
REMARK    3  A    between atoms: C_6  and  O_9
REMARK    4  A    between atoms: O_9  and  C_10
REMARK    5  A    between atoms: C_10  and  C_11
REMARK    6  A    between atoms: C_11  and  N_12
REMARK    7  A    between atoms: N_15  and  C_18
REMARK    8  A    between atoms: C_18  and  C_19
REMARK    9  A    between atoms: C_23  and  C_31
REMARK                            x       y       z     vdW  Elec       q    Type
REMARK                         _______ _______ _______ _____ _____    ______ ____
ROOT
ATOM      1  C   UNL     1      -4.435   1.593  -4.244  0.00  0.00    +0.000 C 
ENDROOT
BRANCH   1   2
ATOM      2  C   UNL     1      -4.166   3.058  -4.474  0.00  0.00    +0.000 C 
ATOM      3  O   UNL     1      -4.172   3.830  -3.538  0.00  0.00    +0.000 OA
ATOM      4  N   UNL     1      -3.918   3.510  -5.719  0.00  0.00    +0.000 N 
ATOM      5  C   UNL     1      -4.040   2.626  -6.890  0.00  0.00    +0.000 C 
ATOM      6  C   UNL     1      -4.731   3.425  -8.004  0.00  0.00    +0.000 C 
ATOM      7  O   UNL     1      -3.953   4.590  -8.287  0.00  0.00    +0.000 OA
ATOM      8  C   UNL     1      -3.562   5.360  -7.238  0.00  0.00    +0.000 A 
ATOM      9  C   UNL     1      -3.538   4.845  -5.946  0.00  0.00    +0.000 A 
ATOM     10  C   UNL     1      -3.138   5.643  -4.886  0.00  0.00    +0.000 A 
ATOM     11  C   UNL     1      -2.769   6.956  -5.114  0.00  0.00    +0.000 A 
ATOM     12  C   UNL     1      -2.799   7.471  -6.396  0.00  0.00    +0.000 A 
ATOM     13  C   UNL     1      -3.186   6.677  -7.456  0.00  0.00    +0.000 A 
BRANCH   6  14
ATOM     14  C   UNL     1      -4.840   2.574  -9.243  0.00  0.00    +0.000 C 
ATOM     15  O   UNL     1      -4.238   2.886 -10.248  0.00  0.00    +0.000 OA
ATOM     16  N   UNL     1      -5.606   1.465  -9.234  0.00  0.00    +0.000 N 
ATOM     17  H   UNL     1      -6.118   1.199  -8.380  0.00  0.00    +0.000 HD
ATOM     18  H   UNL     1      -5.681   0.883 -10.081  0.00  0.00    +0.000 HD
ENDBRANCH   6  14
ENDBRANCH   1   2
BRANCH   1  22
ATOM     19  N   UNL     1      -3.793   0.030  -0.372  0.00  0.00    +0.000 NA
ATOM     20  C   UNL     1      -3.378   1.416  -0.633  0.00  0.00    +0.000 C 
ATOM     21  C   UNL     1      -3.233   1.626  -2.142  0.00  0.00    +0.000 C 
ATOM     22  N   UNL     1      -4.513   1.330  -2.801  0.00  0.00    +0.000 NA
ATOM     23  C   UNL     1      -4.927  -0.056  -2.540  0.00  0.00    +0.000 C 
ATOM     24  C   UNL     1      -5.072  -0.266  -1.031  0.00  0.00    +0.000 C 
BRANCH  19  25
ATOM     25  C   UNL     1      -3.870  -0.233   1.071  0.00  0.00    +0.000 C 
BRANCH  25  26
ATOM     26  C   UNL     1      -4.099  -1.728   1.305  0.00  0.00    +0.000 C 
BRANCH  26  27
ATOM     27  O   UNL     1      -2.943  -2.458   0.890  0.00  0.00    +0.000 OA
BRANCH  27  31
ATOM     28  C   UNL     1      -3.063  -6.561   1.321  0.00  0.00    +0.000 A 
ATOM     29  C   UNL     1      -1.935  -5.952   0.792  0.00  0.00    +0.000 A 
ATOM     30  C   UNL     1      -1.895  -4.579   0.648  0.00  0.00    +0.000 A 
ATOM     31  C   UNL     1      -2.983  -3.809   1.031  0.00  0.00    +0.000 A 
ATOM     32  C   UNL     1      -4.109  -4.418   1.565  0.00  0.00    +0.000 A 
ATOM     33  C   UNL     1      -4.151  -5.792   1.704  0.00  0.00    +0.000 A 
BRANCH  28  35
ATOM     34  C   UNL     1      -4.296  -8.473   2.014  0.00  0.00    +0.000 C 
ATOM     35  O   UNL     1      -3.103  -7.913   1.462  0.00  0.00    +0.000 OA
ENDBRANCH  28  35
ENDBRANCH  27  31
ENDBRANCH  26  27
ENDBRANCH  25  26
ENDBRANCH  19  25
ENDBRANCH   1  22
TORSDOF 8
ENDMDL
MODEL      828
REMARK  Name = ZINC16482498
REMARK  9 active torsions:
REMARK  status: ('A' for Active; 'I' for Inactive)
REMARK    1  A    between atoms: C_3  and  S_27
REMARK    2  A    between atoms: C_6  and  C_7
REMARK    3  A    between atoms: C_7  and  C_8
REMARK    4  A    between atoms: C_8  and  N_9
REMARK    5  A    between atoms: C_10  and  C_12
REMARK    6  A    between atoms: C_12  and  N_31
REMARK    7  A    between atoms: C_17  and  C_18
REMARK    8  A    between atoms: C_17  and  N_32
REMARK    9  A    between atoms: S_27  and  N_30
REMARK                            x       y       z     vdW  Elec       q    Type
REMARK                         _______ _______ _______ _____ _____    ______ ____
ROOT
ATOM      1  N   UNL     1       9.657  -5.196  -2.132  0.00  0.00    +0.000 N 
ATOM      2  C   UNL     1       8.888  -4.588  -1.208  0.00  0.00    +0.000 C 
ATOM      3  O   UNL     1       8.062  -5.227  -0.591  0.00  0.00    +0.000 OA
ATOM      4  H   UNL     1      10.359  -4.653  -2.656  0.00  0.00    +0.000 HD
ENDROOT
BRANCH   1   5
ATOM      5  C   UNL     1       9.495  -6.629  -2.393  0.00  0.00    +0.000 C 
BRANCH   5   6
ATOM      6  C   UNL     1      10.482  -7.064  -3.478  0.00  0.00    +0.000 C 
BRANCH   6  12
ATOM      7  C   UNL     1      11.060  -9.458  -3.032  0.00  0.00    +0.000 A 
ATOM      8  C   UNL     1      10.904 -10.810  -3.275  0.00  0.00    +0.000 A 
ATOM      9  C   UNL     1      10.011 -11.241  -4.237  0.00  0.00    +0.000 A 
ATOM     10  C   UNL     1       9.270 -10.321  -4.955  0.00  0.00    +0.000 A 
ATOM     11  C   UNL     1       9.423  -8.969  -4.709  0.00  0.00    +0.000 A 
ATOM     12  C   UNL     1      10.316  -8.538  -3.746  0.00  0.00    +0.000 A 
BRANCH   9  13
ATOM     13  S   UNL     1       9.816 -12.964  -4.550  0.00  0.00    +0.000 S 
ATOM     14  O   UNL     1      10.223 -13.640  -3.368  0.00  0.00    +0.000 OA
ATOM     15  O   UNL     1       8.523 -13.131  -5.115  0.00  0.00    +0.000 OA
BRANCH  13  16
ATOM     16  N   UNL     1      10.904 -13.375  -5.728  0.00  0.00    +0.000 NA
ATOM     17  H   UNL     1      10.976 -14.352  -6.045  0.00  0.00    +0.000 HD
ATOM     18  H   UNL     1      11.509 -12.653  -6.145  0.00  0.00    +0.000 HD
ENDBRANCH  13  16
ENDBRANCH   9  13
ENDBRANCH   6  12
ENDBRANCH   5   6
ENDBRANCH   1   5
BRANCH   2  19
ATOM     19  C   UNL     1       9.054  -3.114  -0.940  0.00  0.00    +0.000 C 
BRANCH  19  24
ATOM     20  C   UNL     1       8.396  -1.330   0.559  0.00  0.00    +0.000 C 
ATOM     21  C   UNL     1       7.441  -0.962   1.696  0.00  0.00    +0.000 C 
ATOM     22  C   UNL     1       5.765  -2.440   0.767  0.00  0.00    +0.000 C 
ATOM     23  C   UNL     1       6.720  -2.808  -0.371  0.00  0.00    +0.000 C 
ATOM     24  N   UNL     1       8.109  -2.713   0.124  0.00  0.00    +0.000 NA
ATOM     25  N   UNL     1       6.051  -1.057   1.201  0.00  0.00    +0.000 NA
BRANCH  25  26
ATOM     26  C   UNL     1       5.107  -0.655   2.265  0.00  0.00    +0.000 C 
BRANCH  26  27
ATOM     27  C   UNL     1       3.725  -0.548   1.674  0.00  0.00    +0.000 A 
ATOM     28  C   UNL     1       2.885  -1.646   1.677  0.00  0.00    +0.000 A 
ATOM     29  C   UNL     1       1.617  -1.553   1.135  0.00  0.00    +0.000 A 
ATOM     30  C   UNL     1       1.183  -0.356   0.589  0.00  0.00    +0.000 A 
ATOM     31  C   UNL     1       2.028   0.751   0.586  0.00  0.00    +0.000 A 
ATOM     32  C   UNL     1       3.298   0.650   1.131  0.00  0.00    +0.000 A 
ATOM     33  O   UNL     1       1.376   1.797  -0.001  0.00  0.00    +0.000 OA
ATOM     34  C   UNL     1      -0.018   1.436   0.010  0.00  0.00    +0.000 C 
ATOM     35  O   UNL     1       0.002  -0.004   0.002  0.00  0.00    +0.000 OA
ENDBRANCH  26  27
ENDBRANCH  25  26
ENDBRANCH  19  24
ENDBRANCH   2  19
TORSDOF 9
ENDMDL
MODEL      829
REMARK  Name = ZINC12533092
REMARK  14 active torsions:
REMARK  status: ('A' for Active; 'I' for Inactive)
REMARK    1  A    between atoms: C_1  and  C_2
REMARK    2  A    between atoms: C_3  and  C_32
REMARK    3  A    between atoms: N_4  and  C_27
REMARK    4  A    between atoms: C_5  and  N_9
REMARK    5  A    between atoms: C_6  and  C_7
REMARK    6  A    between atoms: C_10  and  C_12
REMARK    7  A    between atoms: C_12  and  N_13
REMARK    8  A    between atoms: C_17  and  S_23
REMARK    9  A    between atoms: C_21  and  C_22
REMARK   10  A    between atoms: S_23  and  N_26
REMARK   11  A    between atoms: C_27  and  C_28
REMARK   12  A    between atoms: C_28  and  C_29
REMARK   13  A    between atoms: C_29  and  O_30
REMARK   14  A    between atoms: O_30  and  C_31
REMARK                            x       y       z     vdW  Elec       q    Type
REMARK                         _______ _______ _______ _____ _____    ______ ____
ROOT
ATOM      1  N   UNL     1       0.171   4.028   4.606  0.00  0.00    +0.000 N 
ATOM      2  C   UNL     1      -0.078   2.990   3.783  0.00  0.00    +0.000 C 
ATOM      3  O   UNL     1      -1.141   2.410   3.843  0.00  0.00    +0.000 OA
ATOM      4  H   UNL     1       1.041   4.569   4.504  0.00  0.00    +0.000 HD
ENDROOT
BRANCH   1   9
ATOM      5  C   UNL     1      -1.944   5.506   8.952  0.00  0.00    +0.000 C 
ATOM      6  C   UNL     1      -1.732   5.030   7.538  0.00  0.00    +0.000 A 
ATOM      7  C   UNL     1      -2.686   4.737   6.638  0.00  0.00    +0.000 A 
ATOM      8  N   UNL     1      -2.098   4.340   5.468  0.00  0.00    +0.000 N 
ATOM      9  C   UNL     1      -0.746   4.368   5.590  0.00  0.00    +0.000 A 
ATOM     10  C   UNL     1      -0.443   4.790   6.877  0.00  0.00    +0.000 A 
ATOM     11  C   UNL     1      -4.170   4.833   6.880  0.00  0.00    +0.000 C 
BRANCH  10  12
ATOM     12  C   UNL     1       0.861   4.961   7.444  0.00  0.00    +0.000 C 
ATOM     13  N   UNL     1       1.895   5.096   7.894  0.00  0.00    +0.000 NA
ENDBRANCH  10  12
BRANCH   8  14
ATOM     14  C   UNL     1      -2.822   3.941   4.258  0.00  0.00    +0.000 C 
BRANCH  14  15
ATOM     15  C   UNL     1      -3.617   2.664   4.537  0.00  0.00    +0.000 C 
BRANCH  15  16
ATOM     16  C   UNL     1      -4.480   2.325   3.321  0.00  0.00    +0.000 C 
BRANCH  16  17
ATOM     17  O   UNL     1      -5.306   1.198   3.622  0.00  0.00    +0.000 OA
ATOM     18  C   UNL     1      -6.157   0.796   2.546  0.00  0.00    +0.000 C 
ENDBRANCH  16  17
ENDBRANCH  15  16
ENDBRANCH  14  15
ENDBRANCH   8  14
ENDBRANCH   1   9
BRANCH   2  19
ATOM     19  C   UNL     1       0.965   2.551   2.788  0.00  0.00    +0.000 C 
BRANCH  19  20
ATOM     20  N   UNL     1       0.421   1.471   1.953  0.00  0.00    +0.000 N 
ATOM     21  C   UNL     1       1.311   1.129   0.924  0.00  0.00    +0.000 A 
ATOM     22  C   UNL     1       2.106   1.946   0.121  0.00  0.00    +0.000 A 
ATOM     23  C   UNL     1       2.910   1.391  -0.852  0.00  0.00    +0.000 A 
ATOM     24  C   UNL     1       2.935   0.020  -1.038  0.00  0.00    +0.000 A 
ATOM     25  C   UNL     1       2.152  -0.797  -0.243  0.00  0.00    +0.000 A 
ATOM     26  C   UNL     1       1.347  -0.247   0.733  0.00  0.00    +0.000 A 
ATOM     27  C   UNL     1       0.406  -0.883   1.736  0.00  0.00    +0.000 C 
ATOM     28  C   UNL     1       0.172   0.255   2.756  0.00  0.00    +0.000 C 
ATOM     29  C   UNL     1       1.165   0.156   3.916  0.00  0.00    +0.000 C 
BRANCH  24  30
ATOM     30  S   UNL     1       3.962  -0.683  -2.285  0.00  0.00    +0.000 S 
ATOM     31  O   UNL     1       5.005   0.251  -2.526  0.00  0.00    +0.000 OA
ATOM     32  O   UNL     1       4.216  -2.025  -1.893  0.00  0.00    +0.000 OA
BRANCH  30  33
ATOM     33  N   UNL     1       3.063  -0.758  -3.674  0.00  0.00    +0.000 NA
ATOM     34  H   UNL     1       2.824  -1.672  -4.084  0.00  0.00    +0.000 HD
ATOM     35  H   UNL     1       2.743   0.110  -4.128  0.00  0.00    +0.000 HD
ENDBRANCH  30  33
ENDBRANCH  24  30
ENDBRANCH  19  20
ENDBRANCH   2  19
TORSDOF 10
ENDMDL
MODEL      830
REMARK  Name = ZINC09216860
REMARK  10 active torsions:
REMARK  status: ('A' for Active; 'I' for Inactive)
REMARK    1  A    between atoms: C_2  and  C_16
REMARK    2  A    between atoms: C_6  and  S_7
REMARK    3  A    between atoms: S_7  and  N_10
REMARK    4  A    between atoms: N_10  and  C_11
REMARK    5  A    between atoms: N_18  and  C_19
REMARK    6  A    between atoms: C_19  and  C_20
REMARK    7  A    between atoms: C_20  and  C_21
REMARK    8  A    between atoms: C_21  and  C_22
REMARK    9  A    between atoms: C_23  and  C_28
REMARK   10  A    between atoms: C_24  and  N_27
REMARK                            x       y       z     vdW  Elec       q    Type
REMARK                         _______ _______ _______ _____ _____    ______ ____
ROOT
ATOM      1  C   UNL     1       6.522   0.825  -3.079  0.00  0.00    +0.000 C 
ATOM      2  O   UNL     1       7.167   0.838  -2.048  0.00  0.00    +0.000 OA
ATOM      3  N   UNL     1       5.181   0.701  -3.033  0.00  0.00    +0.000 N 
ATOM      4  H   UNL     1       4.634   0.690  -3.906  0.00  0.00    +0.000 HD
ENDROOT
BRANCH   1   6
ATOM      5  C   UNL     1       6.471   0.930  -5.567  0.00  0.00    +0.000 A 
ATOM      6  C   UNL     1       7.209   0.944  -4.381  0.00  0.00    +0.000 A 
ATOM      7  C   UNL     1       8.599   1.079  -4.432  0.00  0.00    +0.000 A 
ATOM      8  C   UNL     1       9.235   1.184  -5.653  0.00  0.00    +0.000 A 
ATOM      9  C   UNL     1       8.496   1.169  -6.824  0.00  0.00    +0.000 A 
ATOM     10  C   UNL     1       7.117   1.042  -6.779  0.00  0.00    +0.000 A 
ATOM     11 CL   UNL     1       9.302   1.310  -8.355  0.00  0.00    +0.000 Cl
ATOM     12 CL   UNL     1       9.524   1.105  -2.963  0.00  0.00    +0.000 Cl
BRANCH  10  13
ATOM     13  S   UNL     1       6.188   1.023  -8.276  0.00  0.00    +0.000 S 
ATOM     14  O   UNL     1       4.828   0.836  -7.907  0.00  0.00    +0.000 OA
ATOM     15  O   UNL     1       6.623   2.141  -9.038  0.00  0.00    +0.000 OA
BRANCH  13  16
ATOM     16  N   UNL     1       6.641  -0.329  -9.117  0.00  0.00    +0.000 NA
ATOM     17  H   UNL     1       7.119  -0.235 -10.025  0.00  0.00    +0.000 HD
BRANCH  16  18
ATOM     18  C   UNL     1       6.363  -1.659  -8.570  0.00  0.00    +0.000 C 
ATOM     19  C   UNL     1       7.373  -2.770  -8.864  0.00  0.00    +0.000 C 
ATOM     20  C   UNL     1       6.011  -2.771  -9.561  0.00  0.00    +0.000 C 
ENDBRANCH  16  18
ENDBRANCH  13  16
ENDBRANCH  10  13
ENDBRANCH   1   6
BRANCH   3  21
ATOM     21  C   UNL     1       4.500   0.582  -1.742  0.00  0.00    +0.000 C 
BRANCH  21  22
ATOM     22  C   UNL     1       2.992   0.456  -1.970  0.00  0.00    +0.000 C 
BRANCH  22  23
ATOM     23  C   UNL     1       2.281   0.332  -0.621  0.00  0.00    +0.000 C 
BRANCH  23  24
ATOM     24  C   UNL     1       0.796   0.207  -0.846  0.00  0.00    +0.000 A 
ATOM     25  C   UNL     1       0.082  -1.002  -1.020  0.00  0.00    +0.000 A 
ATOM     26  C   UNL     1      -1.256  -0.662  -1.197  0.00  0.00    +0.000 A 
ATOM     27  N   UNL     1      -1.337   0.683  -1.131  0.00  0.00    +0.000 N 
ATOM     28  N   UNL     1      -0.052   1.194  -0.914  0.00  0.00    +0.000 NA
ATOM     29  H   UNL     1      -2.198   1.240  -1.226  0.00  0.00    +0.000 HD
BRANCH  26  30
ATOM     30  N   UNL     1      -2.305  -1.538  -1.401  0.00  0.00    +0.000 N 
ATOM     31  H   UNL     1      -2.050  -2.535  -1.421  0.00  0.00    +0.000 HD
ATOM     32  H   UNL     1      -3.281  -1.232  -1.527  0.00  0.00    +0.000 HD
ENDBRANCH  26  30
BRANCH  25  33
ATOM     33  C   UNL     1       0.632  -2.324  -1.015  0.00  0.00    +0.000 C 
ATOM     34  N   UNL     1       1.068  -3.373  -1.011  0.00  0.00    +0.000 NA
ENDBRANCH  25  33
ENDBRANCH  23  24
ENDBRANCH  22  23
ENDBRANCH  21  22
ENDBRANCH   3  21
TORSDOF 10
ENDMDL
MODEL      831
REMARK  Name = ZINC23329182
REMARK  9 active torsions:
REMARK  status: ('A' for Active; 'I' for Inactive)
REMARK    1  A    between atoms: C_3  and  C_17
REMARK    2  A    between atoms: C_5  and  C_7
REMARK    3  A    between atoms: C_9  and  C_12
REMARK    4  A    between atoms: C_17  and  N_18
REMARK    5  A    between atoms: C_24  and  C_26
REMARK    6  A    between atoms: C_26  and  C_27
REMARK    7  A    between atoms: C_27  and  C_28
REMARK    8  A    between atoms: C_28  and  S_29
REMARK    9  A    between atoms: S_29  and  N_32
REMARK                            x       y       z     vdW  Elec       q    Type
REMARK                         _______ _______ _______ _____ _____    ______ ____
ROOT
ATOM      1  C   UNL     1      -2.566   3.860   0.047  0.00  0.00    +0.000 C 
ENDROOT
BRANCH   1   2
ATOM      2  N   UNL     1      -3.008   4.104  -1.332  0.00  0.00    +0.000 NA
ATOM      3  C   UNL     1      -2.099   5.030  -2.021  0.00  0.00    +0.000 C 
ATOM      4  C   UNL     1      -2.487   5.117  -3.500  0.00  0.00    +0.000 C 
ATOM      5  N   UNL     1      -3.914   5.464  -3.589  0.00  0.00    +0.000 N 
ATOM      6  C   UNL     1      -4.875   4.664  -2.815  0.00  0.00    +0.000 C 
ATOM      7  C   UNL     1      -4.392   4.595  -1.363  0.00  0.00    +0.000 C 
ATOM      8  C   UNL     1      -4.329   6.489  -4.360  0.00  0.00    +0.000 C 
ATOM      9  O   UNL     1      -5.510   6.761  -4.422  0.00  0.00    +0.000 OA
BRANCH   8  10
ATOM     10  C   UNL     1      -3.328   7.296  -5.145  0.00  0.00    +0.000 C 
BRANCH  10  11
ATOM     11  C   UNL     1      -4.056   8.389  -5.929  0.00  0.00    +0.000 C 
BRANCH  11  12
ATOM     12  C   UNL     1      -3.038   9.209  -6.726  0.00  0.00    +0.000 C 
BRANCH  12  13
ATOM     13  S   UNL     1      -3.902  10.505  -7.656  0.00  0.00    +0.000 S 
ATOM     14  O   UNL     1      -4.704   9.924  -8.675  0.00  0.00    +0.000 OA
ATOM     15  O   UNL     1      -4.448  11.466  -6.764  0.00  0.00    +0.000 OA
BRANCH  13  16
ATOM     16  N   UNL     1      -2.707  11.314  -8.468  0.00  0.00    +0.000 NA
ATOM     17  H   UNL     1      -1.829  10.831  -8.707  0.00  0.00    +0.000 HD
ATOM     18  H   UNL     1      -2.841  12.300  -8.735  0.00  0.00    +0.000 HD
ENDBRANCH  13  16
ENDBRANCH  12  13
ENDBRANCH  11  12
ENDBRANCH  10  11
ENDBRANCH   8  10
ENDBRANCH   1   2
BRANCH   1  21
ATOM     19  C   UNL     1      -0.013   1.076   0.008  0.00  0.00    +0.000 A 
ATOM     20  C   UNL     1      -1.221   1.750   0.017  0.00  0.00    +0.000 A 
ATOM     21  C   UNL     1      -1.246   3.133   0.031  0.00  0.00    +0.000 A 
ATOM     22  C   UNL     1      -0.066   3.848   0.023  0.00  0.00    +0.000 A 
ATOM     23  C   UNL     1       1.153   3.174   0.008  0.00  0.00    +0.000 A 
ATOM     24  C   UNL     1       1.174   1.781   0.000  0.00  0.00    +0.000 A 
BRANCH  23  25
ATOM     25  C   UNL     1       2.426   3.938  -0.001  0.00  0.00    +0.000 A 
ATOM     26  N   UNL     1       3.670   3.416  -0.016  0.00  0.00    +0.000 NA
ATOM     27  C   UNL     1       4.489   4.455  -0.018  0.00  0.00    +0.000 A 
ATOM     28  O   UNL     1       3.719   5.557  -0.005  0.00  0.00    +0.000 OA
ATOM     29  N   UNL     1       2.548   5.241  -0.000  0.00  0.00    +0.000 NA
BRANCH  27  30
ATOM     30  C   UNL     1       5.957   4.414  -0.033  0.00  0.00    +0.000 A 
ATOM     31  C   UNL     1       6.789   5.495  -0.035  0.00  0.00    +0.000 A 
ATOM     32  C   UNL     1       8.102   4.993  -0.050  0.00  0.00    +0.000 A 
ATOM     33  C   UNL     1       8.013   3.646  -0.056  0.00  0.00    +0.000 A 
ATOM     34  O   UNL     1       6.718   3.300  -0.040  0.00  0.00    +0.000 OA
ENDBRANCH  27  30
ENDBRANCH  23  25
ENDBRANCH   1  21
TORSDOF 9
ENDMDL
MODEL      832
REMARK  Name = ZINC27147909
REMARK  10 active torsions:
REMARK  status: ('A' for Active; 'I' for Inactive)
REMARK    1  A    between atoms: C_1  and  O_2
REMARK    2  A    between atoms: O_2  and  C_3
REMARK    3  A    between atoms: C_5  and  C_15
REMARK    4  A    between atoms: C_8  and  O_9
REMARK    5  A    between atoms: O_9  and  C_10
REMARK    6  A    between atoms: C_10  and  C_11
REMARK    7  A    between atoms: N_17  and  N_18
REMARK    8  A    between atoms: C_19  and  C_21
REMARK    9  A    between atoms: C_25  and  S_27
REMARK   10  A    between atoms: S_27  and  C_30
REMARK                            x       y       z     vdW  Elec       q    Type
REMARK                         _______ _______ _______ _____ _____    ______ ____
ROOT
ATOM      1  C   UNL     1       1.514   0.039   6.120  0.00  0.00    +0.000 C 
ATOM      2  O   UNL     1       2.349   0.742   6.655  0.00  0.00    +0.000 OA
ATOM      3  N   UNL     1       1.116  -1.104   6.712  0.00  0.00    +0.000 N 
ATOM      4  H   UNL     1       0.408  -1.700   6.258  0.00  0.00    +0.000 HD
ENDROOT
BRANCH   1   7
ATOM      5  C   UNL     1       0.807   1.991   2.990  0.00  0.00    +0.000 A 
ATOM      6  C   UNL     1       1.350   1.622   4.206  0.00  0.00    +0.000 A 
ATOM      7  C   UNL     1       0.937   0.438   4.821  0.00  0.00    +0.000 A 
ATOM      8  C   UNL     1      -0.022  -0.369   4.204  0.00  0.00    +0.000 A 
ATOM      9  C   UNL     1      -0.563   0.007   2.993  0.00  0.00    +0.000 A 
ATOM     10  C   UNL     1      -0.149   1.182   2.379  0.00  0.00    +0.000 A 
ATOM     11 CL   UNL     1      -1.760  -0.994   2.231  0.00  0.00    +0.000 Cl
BRANCH   5  13
ATOM     12  C   UNL     1       2.191   3.924   3.071  0.00  0.00    +0.000 C 
ATOM     13  O   UNL     1       1.207   3.144   2.388  0.00  0.00    +0.000 OA
ENDBRANCH   5  13
BRANCH  10  14
ATOM     14  O   UNL     1      -0.682   1.547   1.184  0.00  0.00    +0.000 OA
BRANCH  14  15
ATOM     15  C   UNL     1      -0.013   1.086   0.008  0.00  0.00    +0.000 C 
BRANCH  15  16
ATOM     16  C   UNL     1      -0.742   1.585  -1.213  0.00  0.00    +0.000 C 
ATOM     17  O   UNL     1      -1.736   2.268  -1.088  0.00  0.00    +0.000 OA
ATOM     18  N   UNL     1      -0.288   1.272  -2.443  0.00  0.00    +0.000 N 
ATOM     19  H   UNL     1       0.556   0.692  -2.549  0.00  0.00    +0.000 HD
ATOM     20  H   UNL     1      -0.787   1.613  -3.278  0.00  0.00    +0.000 HD
ENDBRANCH  15  16
ENDBRANCH  14  15
ENDBRANCH  10  14
ENDBRANCH   1   7
BRANCH   3  21
ATOM     21  N   UNL     1       1.663  -1.482   7.945  0.00  0.00    +0.000 N 
ATOM     22  C   UNL     1       1.264  -2.625   8.537  0.00  0.00    +0.000 C 
ATOM     23  O   UNL     1       0.430  -3.328   8.002  0.00  0.00    +0.000 OA
ATOM     24  H   UNL     1       2.371  -0.887   8.399  0.00  0.00    +0.000 HD
BRANCH  22  25
ATOM     25  C   UNL     1       1.842  -3.024   9.838  0.00  0.00    +0.000 A 
ATOM     26  C   UNL     1       2.805  -2.222  10.453  0.00  0.00    +0.000 A 
ATOM     27  C   UNL     1       3.337  -2.598  11.669  0.00  0.00    +0.000 A 
ATOM     28  C   UNL     1       2.925  -3.772  12.275  0.00  0.00    +0.000 A 
ATOM     29  C   UNL     1       1.975  -4.574  11.668  0.00  0.00    +0.000 A 
ATOM     30  C   UNL     1       1.432  -4.207  10.454  0.00  0.00    +0.000 A 
BRANCH  29  31
ATOM     31  S   UNL     1       1.458  -6.067  12.448  0.00  0.00    +0.000 S 
ATOM     32  O   UNL     1       1.684  -5.850  13.834  0.00  0.00    +0.000 OA
ATOM     33  O   UNL     1       0.145  -6.298  11.955  0.00  0.00    +0.000 OA
ATOM     34  C   UNL     1       2.592  -7.337  11.821  0.00  0.00    +0.000 C 
ENDBRANCH  29  31
ENDBRANCH  22  25
ENDBRANCH   3  21
TORSDOF 8
ENDMDL
MODEL      833
REMARK  Name = ZINC27249941
REMARK  12 active torsions:
REMARK  status: ('A' for Active; 'I' for Inactive)
REMARK    1  A    between atoms: C_1  and  C_2
REMARK    2  A    between atoms: C_2  and  N_3
REMARK    3  A    between atoms: C_7  and  S_27
REMARK    4  A    between atoms: C_11  and  C_12
REMARK    5  A    between atoms: C_12  and  C_13
REMARK    6  A    between atoms: C_13  and  C_14
REMARK    7  A    between atoms: N_16  and  C_17
REMARK    8  A    between atoms: C_21  and  C_24
REMARK    9  A    between atoms: C_22  and  C_23
REMARK   10  A    between atoms: S_27  and  N_30
REMARK   11  A    between atoms: N_30  and  C_31
REMARK   12  A    between atoms: N_30  and  C_32
REMARK                            x       y       z     vdW  Elec       q    Type
REMARK                         _______ _______ _______ _____ _____    ______ ____
ROOT
ATOM      1  C   UNL     1      -1.265   2.862   1.291  0.00  0.00    +0.000 C 
ENDROOT
BRANCH   1  10
ATOM      2  N   UNL     1      -0.875   1.633   3.483  0.00  0.00    +0.000 N 
ATOM      3  C   UNL     1      -0.098   1.820   4.609  0.00  0.00    +0.000 A 
ATOM      4  C   UNL     1       0.082   1.110   5.788  0.00  0.00    +0.000 A 
ATOM      5  C   UNL     1       0.955   1.584   6.744  0.00  0.00    +0.000 A 
ATOM      6  C   UNL     1       1.653   2.765   6.535  0.00  0.00    +0.000 A 
ATOM      7  C   UNL     1       1.488   3.477   5.381  0.00  0.00    +0.000 A 
ATOM      8  C   UNL     1       0.609   3.015   4.398  0.00  0.00    +0.000 A 
ATOM      9  N   UNL     1       0.239   3.484   3.178  0.00  0.00    +0.000 NA
ATOM     10  C   UNL     1      -0.627   2.673   2.643  0.00  0.00    +0.000 A 
BRANCH   6  11
ATOM     11  S   UNL     1       2.762   3.353   7.772  0.00  0.00    +0.000 S 
ATOM     12  O   UNL     1       2.881   4.755   7.577  0.00  0.00    +0.000 OA
ATOM     13  O   UNL     1       2.333   2.789   9.003  0.00  0.00    +0.000 OA
BRANCH  11  14
ATOM     14  N   UNL     1       4.249   2.701   7.445  0.00  0.00    +0.000 NA
ATOM     15  C   UNL     1       5.186   3.415   6.573  0.00  0.00    +0.000 C 
ATOM     16  C   UNL     1       4.627   1.411   8.027  0.00  0.00    +0.000 C 
ENDBRANCH  11  14
ENDBRANCH   6  11
BRANCH   2  18
ATOM     17  C   UNL     1      -1.045  -0.618   2.542  0.00  0.00    +0.000 C 
ATOM     18  C   UNL     1      -1.795   0.519   3.238  0.00  0.00    +0.000 C 
ENDBRANCH   2  18
ENDBRANCH   1  10
BRANCH   1  19
ATOM     19  C   UNL     1      -0.407   2.183   0.222  0.00  0.00    +0.000 C 
BRANCH  19  20
ATOM     20  C   UNL     1      -1.046   2.372  -1.130  0.00  0.00    +0.000 C 
ATOM     21  O   UNL     1      -2.085   2.990  -1.229  0.00  0.00    +0.000 OA
ATOM     22  N   UNL     1      -0.462   1.854  -2.229  0.00  0.00    +0.000 N 
ATOM     23  H   UNL     1       0.459   1.399  -2.158  0.00  0.00    +0.000 HD
BRANCH  22  24
ATOM     24  C   UNL     1      -1.108   1.936  -3.468  0.00  0.00    +0.000 A 
ATOM     25  C   UNL     1      -2.481   2.147  -3.524  0.00  0.00    +0.000 A 
ATOM     26  C   UNL     1      -3.123   2.228  -4.745  0.00  0.00    +0.000 A 
ATOM     27  C   UNL     1      -2.406   2.100  -5.917  0.00  0.00    +0.000 A 
ATOM     28  C   UNL     1      -1.027   1.889  -5.872  0.00  0.00    +0.000 A 
ATOM     29  C   UNL     1      -0.378   1.812  -4.640  0.00  0.00    +0.000 A 
ATOM     30  C   UNL     1       1.111   1.589  -4.582  0.00  0.00    +0.000 C 
BRANCH  28  31
ATOM     31  C   UNL     1      -0.256   1.753  -7.126  0.00  0.00    +0.000 C 
ATOM     32  O   UNL     1       0.919   1.444  -7.087  0.00  0.00    +0.000 OA
ATOM     33  N   UNL     1      -0.856   1.971  -8.313  0.00  0.00    +0.000 N 
ATOM     34  H   UNL     1      -1.851   2.233  -8.347  0.00  0.00    +0.000 HD
ATOM     35  H   UNL     1      -0.319   1.876  -9.187  0.00  0.00    +0.000 HD
ENDBRANCH  28  31
ENDBRANCH  22  24
ENDBRANCH  19  20
ENDBRANCH   1  19
TORSDOF 8
ENDMDL
MODEL      834
REMARK  Name = ZINC09988677
REMARK  10 active torsions:
REMARK  status: ('A' for Active; 'I' for Inactive)
REMARK    1  A    between atoms: C_1  and  N_2
REMARK    2  A    between atoms: N_2  and  C_3
REMARK    3  A    between atoms: C_3  and  C_4
REMARK    4  A    between atoms: N_6  and  C_7
REMARK    5  A    between atoms: C_14  and  C_16
REMARK    6  A    between atoms: C_16  and  O_17
REMARK    7  A    between atoms: O_17  and  C_18
REMARK    8  A    between atoms: C_18  and  C_20
REMARK    9  A    between atoms: C_24  and  S_26
REMARK   10  A    between atoms: S_26  and  N_29
REMARK                            x       y       z     vdW  Elec       q    Type
REMARK                         _______ _______ _______ _____ _____    ______ ____
ROOT
ATOM      1  C   UNL     1       4.845   3.656  -1.804  0.00  0.00    +0.000 C 
ENDROOT
BRANCH   1   4
ATOM      2  C   UNL     1       3.916   3.091   0.813  0.00  0.00    +0.000 C 
ATOM      3  N   UNL     1       3.417   2.296  -0.311  0.00  0.00    +0.000 N 
ATOM      4  C   UNL     1       3.848   2.552  -1.562  0.00  0.00    +0.000 C 
ATOM      5  O   UNL     1       3.434   1.893  -2.493  0.00  0.00    +0.000 OA
BRANCH   3   6
ATOM      6  C   UNL     1       2.448   1.222  -0.076  0.00  0.00    +0.000 C 
BRANCH   6   7
ATOM      7  C   UNL     1       1.050   1.777  -0.174  0.00  0.00    +0.000 C 
ATOM      8  O   UNL     1       0.880   2.953  -0.417  0.00  0.00    +0.000 OA
ATOM      9  N   UNL     1      -0.011   0.966   0.007  0.00  0.00    +0.000 N 
ATOM     10  H   UNL     1       0.130  -0.046   0.136  0.00  0.00    +0.000 HD
BRANCH   9  11
ATOM     11  C   UNL     1      -1.306   1.499   0.022  0.00  0.00    +0.000 A 
ATOM     12  C   UNL     1      -1.528   2.770   0.536  0.00  0.00    +0.000 A 
ATOM     13  C   UNL     1      -2.805   3.296   0.545  0.00  0.00    +0.000 A 
ATOM     14  C   UNL     1      -3.865   2.553   0.052  0.00  0.00    +0.000 A 
ATOM     15  C   UNL     1      -3.646   1.284  -0.456  0.00  0.00    +0.000 A 
ATOM     16  C   UNL     1      -2.369   0.756  -0.472  0.00  0.00    +0.000 A 
ATOM     17  F   UNL     1      -5.114   3.068   0.066  0.00  0.00    +0.000 F 
ENDBRANCH   9  11
ENDBRANCH   6   7
ENDBRANCH   3   6
ENDBRANCH   1   4
BRANCH   1  18
ATOM     18  O   UNL     1       5.148   3.732  -3.222  0.00  0.00    +0.000 OA
BRANCH  18  19
ATOM     19  C   UNL     1       6.029   4.674  -3.610  0.00  0.00    +0.000 C 
ATOM     20  O   UNL     1       6.530   5.413  -2.785  0.00  0.00    +0.000 OA
BRANCH  19  21
ATOM     21  C   UNL     1       6.386   4.810  -5.036  0.00  0.00    +0.000 A 
ATOM     22  C   UNL     1       5.816   3.958  -5.986  0.00  0.00    +0.000 A 
ATOM     23  C   UNL     1       6.149   4.093  -7.316  0.00  0.00    +0.000 A 
ATOM     24  C   UNL     1       7.056   5.064  -7.712  0.00  0.00    +0.000 A 
ATOM     25  C   UNL     1       7.629   5.907  -6.774  0.00  0.00    +0.000 A 
ATOM     26  C   UNL     1       7.299   5.786  -5.441  0.00  0.00    +0.000 A 
ATOM     27 CL   UNL     1       7.476   5.223  -9.388  0.00  0.00    +0.000 Cl
BRANCH  25  28
ATOM     28  S   UNL     1       8.780   7.139  -7.287  0.00  0.00    +0.000 S 
ATOM     29  O   UNL     1       8.186   7.819  -8.384  0.00  0.00    +0.000 OA
ATOM     30  O   UNL     1       9.203   7.815  -6.111  0.00  0.00    +0.000 OA
BRANCH  28  31
ATOM     31  N   UNL     1      10.109   6.349  -7.882  0.00  0.00    +0.000 NA
ATOM     32  H   UNL     1      10.094   5.325  -7.989  0.00  0.00    +0.000 HD
ATOM     33  H   UNL     1      10.950   6.883  -8.146  0.00  0.00    +0.000 HD
ENDBRANCH  28  31
ENDBRANCH  25  28
ENDBRANCH  19  21
ENDBRANCH  18  19
ENDBRANCH   1  18
TORSDOF 9
ENDMDL
MODEL      835
REMARK  Name = ZINC09951579
REMARK  9 active torsions:
REMARK  status: ('A' for Active; 'I' for Inactive)
REMARK    1  A    between atoms: C_1  and  O_2
REMARK    2  A    between atoms: O_2  and  C_3
REMARK    3  A    between atoms: C_3  and  C_5
REMARK    4  A    between atoms: C_5  and  C_6
REMARK    5  A    between atoms: C_6  and  N_16
REMARK    6  A    between atoms: N_16  and  C_17
REMARK    7  A    between atoms: C_22  and  C_23
REMARK    8  A    between atoms: N_25  and  C_26
REMARK    9  A    between atoms: C_26  and  C_27
REMARK                            x       y       z     vdW  Elec       q    Type
REMARK                         _______ _______ _______ _____ _____    ______ ____
ROOT
ATOM      1  C   UNL     1       0.333   6.383  -0.048  0.00  0.00    +0.000 C 
ATOM      2  C   UNL     1      -0.315   5.543   0.838  0.00  0.00    +0.000 C 
ATOM      3  C   UNL     1       0.298   5.159   2.122  0.00  0.00    +0.000 C 
ATOM      4  O   UNL     1       1.397   5.573   2.438  0.00  0.00    +0.000 OA
ATOM      5  N   UNL     1      -0.393   4.335   2.937  0.00  0.00    +0.000 N 
ATOM      6  C   UNL     1      -1.605   3.873   2.602  0.00  0.00    +0.000 C 
ATOM      7  S   UNL     1      -2.408   2.833   3.700  0.00  0.00    +0.000 S 
ATOM      8  N   UNL     1      -2.220   4.176   1.450  0.00  0.00    +0.000 N 
ATOM      9  C   UNL     1      -1.650   4.993   0.540  0.00  0.00    +0.000 C 
ATOM     10  O   UNL     1      -2.220   5.264  -0.500  0.00  0.00    +0.000 OA
ATOM     11  H   UNL     1       0.021   4.056   3.838  0.00  0.00    +0.000 HD
ATOM     12  H   UNL     1      -3.149   3.776   1.256  0.00  0.00    +0.000 HD
ENDROOT
BRANCH   1  13
ATOM     13  C   UNL     1      -0.397   6.910  -1.257  0.00  0.00    +0.000 C 
ATOM     14  F   UNL     1      -0.048   8.249  -1.465  0.00  0.00    +0.000 F 
BRANCH  13  15
ATOM     15  C   UNL     1      -0.015   6.098  -2.467  0.00  0.00    +0.000 C 
ATOM     16  O   UNL     1       1.135   5.768  -2.635  0.00  0.00    +0.000 OA
BRANCH  15  18
ATOM     17  C   UNL     1      -0.513   4.959  -4.501  0.00  0.00    +0.000 C 
ATOM     18  O   UNL     1      -0.953   5.741  -3.359  0.00  0.00    +0.000 OA
ENDBRANCH  15  18
ENDBRANCH  13  15
ENDBRANCH   1  13
BRANCH   1  19
ATOM     19  N   UNL     1       1.619   6.731   0.170  0.00  0.00    +0.000 N 
ATOM     20  H   UNL     1       2.345   6.003   0.238  0.00  0.00    +0.000 HD
BRANCH  19  21
ATOM     21  C   UNL     1       1.964   8.072   0.302  0.00  0.00    +0.000 A 
ATOM     22  C   UNL     1       0.997   9.013   0.631  0.00  0.00    +0.000 A 
ATOM     23  C   UNL     1       1.342  10.342   0.766  0.00  0.00    +0.000 A 
ATOM     24  C   UNL     1       2.650  10.751   0.565  0.00  0.00    +0.000 A 
ATOM     25  C   UNL     1       3.623   9.833   0.233  0.00  0.00    +0.000 A 
ATOM     26  C   UNL     1       3.290   8.483   0.097  0.00  0.00    +0.000 A 
BRANCH  26  27
ATOM     27  C   UNL     1       4.326   7.495  -0.259  0.00  0.00    +0.000 C 
ATOM     28  O   UNL     1       4.012   6.348  -0.510  0.00  0.00    +0.000 OA
ATOM     29  N   UNL     1       5.622   7.865  -0.307  0.00  0.00    +0.000 N 
ATOM     30  H   UNL     1       5.888   8.837  -0.095  0.00  0.00    +0.000 HD
BRANCH  29  31
ATOM     31  C   UNL     1       6.651   6.884  -0.661  0.00  0.00    +0.000 C 
BRANCH  31  32
ATOM     32  C   UNL     1       8.004   7.547  -0.642  0.00  0.00    +0.000 A 
ATOM     33  C   UNL     1       8.824   7.631   0.421  0.00  0.00    +0.000 A 
ATOM     34  C   UNL     1       9.977   8.329  -0.006  0.00  0.00    +0.000 A 
ATOM     35  C   UNL     1       9.793   8.629  -1.304  0.00  0.00    +0.000 A 
ATOM     36  O   UNL     1       8.598   8.148  -1.685  0.00  0.00    +0.000 OA
ENDBRANCH  31  32
ENDBRANCH  29  31
ENDBRANCH  26  27
ENDBRANCH  19  21
ENDBRANCH   1  19
TORSDOF 8
ENDMDL
MODEL      836
REMARK  Name = ZINC28719948
REMARK  10 active torsions:
REMARK  status: ('A' for Active; 'I' for Inactive)
REMARK    1  A    between atoms: C_1  and  N_2
REMARK    2  A    between atoms: C_6  and  C_7
REMARK    3  A    between atoms: N_9  and  N_10
REMARK    4  A    between atoms: C_11  and  C_13
REMARK    5  A    between atoms: C_13  and  C_14
REMARK    6  A    between atoms: C_14  and  N_15
REMARK    7  A    between atoms: N_15  and  S_16
REMARK    8  A    between atoms: S_16  and  C_19
REMARK    9  A    between atoms: C_22  and  O_25
REMARK   10  A    between atoms: O_25  and  C_26
REMARK                            x       y       z     vdW  Elec       q    Type
REMARK                         _______ _______ _______ _____ _____    ______ ____
ROOT
ATOM      1  N   UNL     1       4.239   0.170  -0.074  0.00  0.00    +0.000 N 
ATOM      2  C   UNL     1       4.568  -1.131  -0.195  0.00  0.00    +0.000 C 
ATOM      3  O   UNL     1       3.702  -1.961  -0.371  0.00  0.00    +0.000 OA
ATOM      4  H   UNL     1       4.975   0.876   0.076  0.00  0.00    +0.000 HD
ENDROOT
BRANCH   1   7
ATOM      5  C   UNL     1       2.568   1.865  -0.031  0.00  0.00    +0.000 C 
ATOM      6  O   UNL     1       3.442   2.708   0.053  0.00  0.00    +0.000 OA
ATOM      7  N   UNL     1       2.897   0.564  -0.152  0.00  0.00    +0.000 N 
ATOM      8  H   UNL     1       2.162  -0.141  -0.302  0.00  0.00    +0.000 HD
BRANCH   5  14
ATOM      9  C   UNL     1       1.497   4.771   0.019  0.00  0.00    +0.000 C 
ATOM     10  N   UNL     1       0.679   3.556   0.022  0.00  0.00    +0.000 N 
ATOM     11  C   UNL     1      -0.676   3.515   0.052  0.00  0.00    +0.000 A 
ATOM     12  C   UNL     1      -1.076   2.220   0.041  0.00  0.00    +0.000 A 
ATOM     13  C   UNL     1       0.070   1.418   0.011  0.00  0.00    +0.000 A 
ATOM     14  C   UNL     1       1.158   2.266  -0.001  0.00  0.00    +0.000 A 
ATOM     15 BR   UNL     1      -2.864   1.606   0.068  0.00  0.00    +0.000 Br
ENDBRANCH   5  14
ENDBRANCH   1   7
BRANCH   2  16
ATOM     16  C   UNL     1       6.012  -1.554  -0.111  0.00  0.00    +0.000 C 
BRANCH  16  17
ATOM     17  C   UNL     1       6.109  -3.072  -0.278  0.00  0.00    +0.000 C 
BRANCH  17  18
ATOM     18  N   UNL     1       7.513  -3.484  -0.197  0.00  0.00    +0.000 NA
ATOM     19  H   UNL     1       8.261  -2.781  -0.279  0.00  0.00    +0.000 HD
BRANCH  18  20
ATOM     20  S   UNL     1       7.896  -5.079   0.028  0.00  0.00    +0.000 S 
ATOM     21  O   UNL     1       9.315  -5.158   0.038  0.00  0.00    +0.000 OA
ATOM     22  O   UNL     1       7.100  -5.539   1.112  0.00  0.00    +0.000 OA
BRANCH  20  23
ATOM     23  C   UNL     1       7.352  -5.952  -1.402  0.00  0.00    +0.000 A 
ATOM     24  C   UNL     1       6.075  -6.482  -1.443  0.00  0.00    +0.000 A 
ATOM     25  C   UNL     1       5.645  -7.163  -2.566  0.00  0.00    +0.000 A 
ATOM     26  C   UNL     1       6.498  -7.324  -3.648  0.00  0.00    +0.000 A 
ATOM     27  C   UNL     1       7.780  -6.796  -3.602  0.00  0.00    +0.000 A 
ATOM     28  C   UNL     1       8.204  -6.111  -2.479  0.00  0.00    +0.000 A 
BRANCH  26  29
ATOM     29  O   UNL     1       6.078  -7.997  -4.751  0.00  0.00    +0.000 OA
ATOM     30  C   UNL     1       4.746  -8.513  -4.729  0.00  0.00    +0.000 C 
ENDBRANCH  26  29
ENDBRANCH  20  23
ENDBRANCH  18  20
ENDBRANCH  17  18
ENDBRANCH  16  17
ENDBRANCH   2  16
TORSDOF 8
ENDMDL
MODEL      837
REMARK  Name = ZINC26301859
REMARK  10 active torsions:
REMARK  status: ('A' for Active; 'I' for Inactive)
REMARK    1  A    between atoms: C_1  and  C_2
REMARK    2  A    between atoms: C_2  and  C_3
REMARK    3  A    between atoms: C_2  and  C_4
REMARK    4  A    between atoms: C_4  and  C_5
REMARK    5  A    between atoms: C_4  and  N_26
REMARK    6  A    between atoms: C_5  and  N_6
REMARK    7  A    between atoms: N_9  and  C_10
REMARK    8  A    between atoms: C_10  and  C_11
REMARK    9  A    between atoms: C_14  and  S_17
REMARK   10  A    between atoms: S_17  and  N_20
REMARK                            x       y       z     vdW  Elec       q    Type
REMARK                         _______ _______ _______ _____ _____    ______ ____
ROOT
ATOM      1  N   UNL     1      -0.383   0.201  -3.727  0.00  0.00    +0.000 N 
ATOM      2  C   UNL     1       0.415  -0.594  -2.986  0.00  0.00    +0.000 C 
ATOM      3  O   UNL     1       1.407  -1.092  -3.482  0.00  0.00    +0.000 OA
ATOM      4  N   UNL     1       0.112  -0.837  -1.696  0.00  0.00    +0.000 N 
ATOM      5  H   UNL     1      -1.224   0.622  -3.307  0.00  0.00    +0.000 HD
ATOM      6  H   UNL     1      -0.728  -0.416  -1.275  0.00  0.00    +0.000 HD
ENDROOT
BRANCH   1   7
ATOM      7  C   UNL     1      -0.054   0.465  -5.130  0.00  0.00    +0.000 C 
BRANCH   7   8
ATOM      8  C   UNL     1      -1.172   1.292  -5.769  0.00  0.00    +0.000 C 
BRANCH   8   9
ATOM      9  N   UNL     1      -1.342   2.545  -5.021  0.00  0.00    +0.000 NA
ATOM     10  C   UNL     1      -2.102   3.528  -5.807  0.00  0.00    +0.000 C 
ATOM     11  C   UNL     1      -2.307   4.794  -4.971  0.00  0.00    +0.000 C 
ATOM     12  O   UNL     1      -1.034   5.298  -4.559  0.00  0.00    +0.000 OA
ATOM     13  C   UNL     1      -0.267   4.367  -3.790  0.00  0.00    +0.000 C 
ATOM     14  C   UNL     1      -0.041   3.097  -4.615  0.00  0.00    +0.000 C 
ENDBRANCH   8   9
BRANCH   8  16
ATOM     15  C   UNL     1       0.549   2.316  -7.262  0.00  0.00    +0.000 C 
ATOM     16  C   UNL     1      -0.807   1.609  -7.220  0.00  0.00    +0.000 C 
ATOM     17  C   UNL     1      -0.729   0.308  -8.022  0.00  0.00    +0.000 C 
ENDBRANCH   8  16
ENDBRANCH   7   8
ENDBRANCH   1   7
BRANCH   4  18
ATOM     18  C   UNL     1       0.979  -1.701  -0.890  0.00  0.00    +0.000 C 
BRANCH  18  19
ATOM     19  C   UNL     1       0.423  -1.810   0.506  0.00  0.00    +0.000 A 
ATOM     20  C   UNL     1       0.816  -0.909   1.478  0.00  0.00    +0.000 A 
ATOM     21  C   UNL     1       0.302  -1.006   2.758  0.00  0.00    +0.000 A 
ATOM     22  C   UNL     1      -0.597  -2.009   3.068  0.00  0.00    +0.000 A 
ATOM     23  C   UNL     1      -0.986  -2.913   2.097  0.00  0.00    +0.000 A 
ATOM     24  C   UNL     1      -0.475  -2.814   0.816  0.00  0.00    +0.000 A 
BRANCH  22  25
ATOM     25  S   UNL     1      -1.248  -2.136   4.700  0.00  0.00    +0.000 S 
ATOM     26  O   UNL     1      -1.146  -0.842   5.279  0.00  0.00    +0.000 OA
ATOM     27  O   UNL     1      -2.486  -2.826   4.591  0.00  0.00    +0.000 OA
BRANCH  25  28
ATOM     28  N   UNL     1      -0.231  -3.121   5.558  0.00  0.00    +0.000 NA
ATOM     29  C   UNL     1      -0.448  -4.575   5.607  0.00  0.00    +0.000 C 
ATOM     30  C   UNL     1       0.877  -5.270   5.251  0.00  0.00    +0.000 C 
ATOM     31  O   UNL     1       1.916  -4.755   6.087  0.00  0.00    +0.000 OA
ATOM     32  C   UNL     1       2.168  -3.358   5.914  0.00  0.00    +0.000 C 
ATOM     33  C   UNL     1       0.913  -2.567   6.300  0.00  0.00    +0.000 C 
ENDBRANCH  25  28
ENDBRANCH  22  25
ENDBRANCH  18  19
ENDBRANCH   4  18
TORSDOF 8
ENDMDL
MODEL      838
REMARK  Name = ZINC28910727
REMARK  8 active torsions:
REMARK  status: ('A' for Active; 'I' for Inactive)
REMARK    1  A    between atoms: C_2  and  N_13
REMARK    2  A    between atoms: C_14  and  C_16
REMARK    3  A    between atoms: C_16  and  S_17
REMARK    4  A    between atoms: S_17  and  C_18
REMARK    5  A    between atoms: C_21  and  C_28
REMARK    6  A    between atoms: N_22  and  C_23
REMARK    7  A    between atoms: C_23  and  C_24
REMARK    8  A    between atoms: C_24  and  C_25
REMARK                            x       y       z     vdW  Elec       q    Type
REMARK                         _______ _______ _______ _____ _____    ______ ____
ROOT
ATOM      1  C   UNL     1       5.736   3.687  -0.158  0.00  0.00    +0.000 C 
ENDROOT
BRANCH   1   3
ATOM      2  N   UNL     1       7.868   4.938  -0.066  0.00  0.00    +0.000 N 
ATOM      3  C   UNL     1       7.215   3.813  -0.419  0.00  0.00    +0.000 C 
ATOM      4  O   UNL     1       7.818   2.902  -0.946  0.00  0.00    +0.000 OA
ATOM      5  H   UNL     1       7.345   5.738   0.318  0.00  0.00    +0.000 HD
BRANCH   2   7
ATOM      6  C   UNL     1       9.874   4.388  -1.295  0.00  0.00    +0.000 A 
ATOM      7  C   UNL     1       9.258   5.020  -0.222  0.00  0.00    +0.000 A 
ATOM      8  C   UNL     1      10.018   5.738   0.692  0.00  0.00    +0.000 A 
ATOM      9  C   UNL     1      11.392   5.815   0.545  0.00  0.00    +0.000 A 
ATOM     10  C   UNL     1      12.005   5.186  -0.525  0.00  0.00    +0.000 A 
ATOM     11  C   UNL     1      11.248   4.473  -1.443  0.00  0.00    +0.000 A 
ATOM     12  O   UNL     1      11.865   3.857  -2.494  0.00  0.00    +0.000 OA
ATOM     13  C   UNL     1      12.700   2.746  -2.164  0.00  0.00    +0.000 C 
ATOM     14  C   UNL     1      14.091   3.216  -1.767  0.00  0.00    +0.000 C 
ATOM     15  C   UNL     1      14.080   4.043  -0.491  0.00  0.00    +0.000 C 
ATOM     16  O   UNL     1      13.360   5.262  -0.683  0.00  0.00    +0.000 OA
ATOM     17 CL   UNL     1       9.244   6.533   2.027  0.00  0.00    +0.000 Cl
ENDBRANCH   2   7
ENDBRANCH   1   3
BRANCH   1  18
ATOM     18  S   UNL     1       5.156   2.074  -0.739  0.00  0.00    +0.000 S 
BRANCH  18  19
ATOM     19  C   UNL     1       3.449   2.193  -0.322  0.00  0.00    +0.000 A 
ATOM     20  N   UNL     1       2.855   3.214   0.252  0.00  0.00    +0.000 NA
ATOM     21  N   UNL     1       1.604   2.963   0.403  0.00  0.00    +0.000 NA
ATOM     22  C   UNL     1       1.328   1.774  -0.052  0.00  0.00    +0.000 A 
ATOM     23  N   UNL     1       2.493   1.242  -0.534  0.00  0.00    +0.000 N 
BRANCH  22  24
ATOM     24  C   UNL     1      -0.024   1.109  -0.053  0.00  0.00    +0.000 C 
ATOM     25  C   UNL     1      -1.151   1.799   0.719  0.00  0.00    +0.000 C 
ATOM     26  C   UNL     1      -1.154   1.808  -0.811  0.00  0.00    +0.000 C 
ENDBRANCH  22  24
BRANCH  23  27
ATOM     27  C   UNL     1       2.676  -0.075  -1.149  0.00  0.00    +0.000 C 
BRANCH  27  28
ATOM     28  C   UNL     1       2.462   0.034  -2.660  0.00  0.00    +0.000 C 
BRANCH  28  29
ATOM     29  C   UNL     1       2.651  -1.320  -3.293  0.00  0.00    +0.000 C 
ATOM     30  O   UNL     1       2.929  -2.278  -2.604  0.00  0.00    +0.000 OA
ATOM     31  N   UNL     1       2.510  -1.467  -4.626  0.00  0.00    +0.000 N 
ATOM     32  H   UNL     1       2.274  -0.653  -5.211  0.00  0.00    +0.000 HD
ATOM     33  H   UNL     1       2.639  -2.393  -5.058  0.00  0.00    +0.000 HD
ENDBRANCH  28  29
ENDBRANCH  27  28
ENDBRANCH  23  27
ENDBRANCH  18  19
ENDBRANCH   1  18
TORSDOF 8
ENDMDL
MODEL      839
REMARK  Name = ZINC12320688
REMARK  13 active torsions:
REMARK  status: ('A' for Active; 'I' for Inactive)
REMARK    1  A    between atoms: C_1  and  C_2
REMARK    2  A    between atoms: C_2  and  C_24
REMARK    3  A    between atoms: N_3  and  N_4
REMARK    4  A    between atoms: C_8  and  N_23
REMARK    5  A    between atoms: N_13  and  C1*_14
REMARK    6  A    between atoms: C2*_15  and  O2*_22
REMARK    7  A    between atoms: C3*_16  and  O3*_21
REMARK    8  A    between atoms: C4*_17  and  C5*_19
REMARK    9  A    between atoms: C5*_19  and  O5*_20
REMARK   10  A    between atoms: C_24  and  O_25
REMARK   11  A    between atoms: O_25  and  C_26
REMARK   12  A    between atoms: C_29  and  O_32
REMARK   13  A    between atoms: O_32  and  C_33
REMARK                            x       y       z     vdW  Elec       q    Type
REMARK                         _______ _______ _______ _____ _____    ______ ____
ROOT
ATOM      1  N   UNL     1       1.691  -3.122   0.808  0.00  0.00    +0.000 N 
ATOM      2  C   UNL     1       1.173  -3.223   2.084  0.00  0.00    +0.000 A 
ATOM      3  N   UNL     1       1.522  -4.123   2.970  0.00  0.00    +0.000 NA
ATOM      4  C   UNL     1       0.811  -3.932   4.109  0.00  0.00    +0.000 A 
ATOM      5  C   UNL     1       0.758  -4.575   5.357  0.00  0.00    +0.000 A 
ATOM      6  N   UNL     1      -0.082  -4.109   6.275  0.00  0.00    +0.000 NA
ATOM      7  C   UNL     1      -0.853  -3.066   6.029  0.00  0.00    +0.000 A 
ATOM      8  N   UNL     1      -0.837  -2.432   4.875  0.00  0.00    +0.000 NA
ATOM      9  C   UNL     1      -0.029  -2.827   3.897  0.00  0.00    +0.000 A 
ATOM     10  N   UNL     1       0.221  -2.397   2.615  0.00  0.00    +0.000 N 
ATOM     11  H   UNL     1       1.361  -2.380   0.175  0.00  0.00    +0.000 HD
ENDROOT
BRANCH  10  12
ATOM     12  C1* UNL     1      -0.420  -1.265   1.939  0.00  0.00    +0.000 C 
ATOM     13  C2* UNL     1      -1.401  -1.771   0.852  0.00  0.00    +0.000 C 
ATOM     14  C3* UNL     1      -1.439  -0.547  -0.103  0.00  0.00    +0.000 C 
ATOM     15  C4* UNL     1       0.002  -0.004   0.002  0.00  0.00    +0.000 C 
ATOM     16  O4* UNL     1       0.559  -0.489   1.229  0.00  0.00    +0.000 OA
BRANCH  14  17
ATOM     17  O3* UNL     1      -1.733  -0.954  -1.441  0.00  0.00    +0.000 OA
ATOM     18  H3* UNL     1      -2.612  -1.410  -1.452  0.00  0.00    +0.000 HD
ENDBRANCH  14  17
BRANCH  13  19
ATOM     19  O2* UNL     1      -2.692  -2.034   1.405  0.00  0.00    +0.000 OA
ATOM     20  H2* UNL     1      -3.043  -1.199   1.806  0.00  0.00    +0.000 HD
ENDBRANCH  13  19
BRANCH  15  21
ATOM     21  C5* UNL     1      -0.019   1.526   0.010  0.00  0.00    +0.000 C 
BRANCH  21  22
ATOM     22  O5* UNL     1       1.322   2.020   0.000  0.00  0.00    +0.000 OA
ATOM     23  H5* UNL     1       1.786   1.702  -0.814  0.00  0.00    +0.000 HD
ENDBRANCH  21  22
ENDBRANCH  15  21
ENDBRANCH  10  12
BRANCH   1  26
ATOM     24  C   UNL     1       2.663  -2.850  -1.735  0.00  0.00    +0.000 C 
ATOM     25  C   UNL     1       3.147  -3.936  -0.809  0.00  0.00    +0.000 C 
ATOM     26  N   UNL     1       2.667  -4.029   0.374  0.00  0.00    +0.000 NA
BRANCH  25  27
ATOM     27  C   UNL     1       4.196  -4.912  -1.275  0.00  0.00    +0.000 C 
BRANCH  27  28
ATOM     28  O   UNL     1       4.486  -5.838  -0.226  0.00  0.00    +0.000 OA
BRANCH  28  29
ATOM     29  C   UNL     1       5.419  -6.793  -0.485  0.00  0.00    +0.000 A 
ATOM     30  C   UNL     1       6.037  -6.839  -1.726  0.00  0.00    +0.000 A 
ATOM     31  C   UNL     1       6.989  -7.806  -1.987  0.00  0.00    +0.000 A 
ATOM     32  C   UNL     1       7.318  -8.736  -1.013  0.00  0.00    +0.000 A 
ATOM     33  C   UNL     1       6.695  -8.693   0.226  0.00  0.00    +0.000 A 
ATOM     34  C   UNL     1       5.748  -7.723   0.489  0.00  0.00    +0.000 A 
BRANCH  32  35
ATOM     35  O   UNL     1       8.251  -9.691  -1.272  0.00  0.00    +0.000 OA
ATOM     36  C   UNL     1       8.852  -9.676  -2.568  0.00  0.00    +0.000 C 
ENDBRANCH  32  35
ENDBRANCH  28  29
ENDBRANCH  27  28
ENDBRANCH  25  27
ENDBRANCH   1  26
BRANCH   5  37
ATOM     37  N   UNL     1       1.563  -5.671   5.624  0.00  0.00    +0.000 N 
ATOM     38  H   UNL     1       2.207  -6.015   4.897  0.00  0.00    +0.000 HD
ATOM     39  H   UNL     1       1.520  -6.138   6.541  0.00  0.00    +0.000 HD
ENDBRANCH   5  37
TORSDOF 11
ENDMDL
MODEL      840
REMARK  Name = ZINC27856025
REMARK  8 active torsions:
REMARK  status: ('A' for Active; 'I' for Inactive)
REMARK    1  A    between atoms: C_3  and  N_24
REMARK    2  A    between atoms: C_6  and  N_7
REMARK    3  A    between atoms: C_8  and  C_10
REMARK    4  A    between atoms: C_10  and  C_11
REMARK    5  A    between atoms: C_11  and  C_12
REMARK    6  A    between atoms: C_12  and  N_13
REMARK    7  A    between atoms: N_27  and  C_28
REMARK    8  A    between atoms: C_28  and  C_29
REMARK                            x       y       z     vdW  Elec       q    Type
REMARK                         _______ _______ _______ _____ _____    ______ ____
ROOT
ATOM      1  C   UNL     1      -6.265   4.520   4.747  0.00  0.00    +0.000 A 
ATOM      2  C   UNL     1      -6.696   4.668   6.050  0.00  0.00    +0.000 A 
ATOM      3  C   UNL     1      -5.772   4.757   7.082  0.00  0.00    +0.000 A 
ATOM      4  C   UNL     1      -4.413   4.692   6.804  0.00  0.00    +0.000 A 
ATOM      5  C   UNL     1      -3.981   4.538   5.502  0.00  0.00    +0.000 A 
ATOM      6  C   UNL     1      -4.906   4.449   4.470  0.00  0.00    +0.000 A 
ENDROOT
BRANCH   3   7
ATOM      7  N   UNL     1      -6.210   4.914   8.403  0.00  0.00    +0.000 N 
ATOM      8  C   UNL     1      -7.344   4.312   8.813  0.00  0.00    +0.000 C 
ATOM      9  O   UNL     1      -8.032   3.704   8.015  0.00  0.00    +0.000 OA
ATOM     10  N   UNL     1      -7.717   4.386  10.106  0.00  0.00    +0.000 N 
ATOM     11  H   UNL     1      -5.664   5.488   9.062  0.00  0.00    +0.000 HD
ATOM     12  H   UNL     1      -7.134   4.901  10.781  0.00  0.00    +0.000 HD
BRANCH  10  13
ATOM     13  C   UNL     1      -8.950   3.732  10.551  0.00  0.00    +0.000 C 
BRANCH  13  14
ATOM     14  C   UNL     1      -9.139   3.966  12.051  0.00  0.00    +0.000 C 
ATOM     15  C   UNL     1     -10.366   3.183  12.568  0.00  0.00    +0.000 C 
ATOM     16  C   UNL     1     -10.999   4.125  13.616  0.00  0.00    +0.000 C 
ATOM     17  C   UNL     1     -10.079   5.367  13.609  0.00  0.00    +0.000 C 
ATOM     18  O   UNL     1      -9.451   5.353  12.308  0.00  0.00    +0.000 OA
ENDBRANCH  13  14
ENDBRANCH  10  13
ENDBRANCH   3   7
BRANCH   6  19
ATOM     19  N   UNL     1      -4.468   4.293   3.148  0.00  0.00    +0.000 N 
ATOM     20  C   UNL     1      -3.368   3.561   2.885  0.00  0.00    +0.000 C 
ATOM     21  O   UNL     1      -2.709   3.106   3.796  0.00  0.00    +0.000 OA
ATOM     22  H   UNL     1      -4.987   4.738   2.378  0.00  0.00    +0.000 HD
BRANCH  20  23
ATOM     23  C   UNL     1      -2.956   3.306   1.458  0.00  0.00    +0.000 C 
BRANCH  23  24
ATOM     24  C   UNL     1      -1.684   2.455   1.438  0.00  0.00    +0.000 C 
BRANCH  24  25
ATOM     25  C   UNL     1      -1.266   2.197  -0.011  0.00  0.00    +0.000 C 
BRANCH  25  26
ATOM     26  N   UNL     1      -0.049   1.382  -0.030  0.00  0.00    +0.000 N 
ATOM     27  C   UNL     1      -0.039   0.032  -0.054  0.00  0.00    +0.000 C 
ATOM     28  O   UNL     1      -0.997  -0.711  -0.059  0.00  0.00    +0.000 OA
ATOM     29  C   UNL     1       1.418  -0.355  -0.073  0.00  0.00    +0.000 C 
ATOM     30  C   UNL     1       1.757  -1.165  -1.331  0.00  0.00    +0.000 C 
ATOM     31  C   UNL     1       2.824  -2.181  -0.847  0.00  0.00    +0.000 C 
ATOM     32  C   UNL     1       2.332  -2.545   0.577  0.00  0.00    +0.000 C 
ATOM     33  C   UNL     1       1.781  -1.216   1.139  0.00  0.00    +0.000 C 
ATOM     34  N   UNL     1       2.136   0.921  -0.057  0.00  0.00    +0.000 NA
ATOM     35  C   UNL     1       1.193   1.884  -0.032  0.00  0.00    +0.000 C 
ATOM     36  O   UNL     1       1.442   3.073  -0.013  0.00  0.00    +0.000 OA
ENDBRANCH  25  26
ENDBRANCH  24  25
ENDBRANCH  23  24
ENDBRANCH  20  23
ENDBRANCH   6  19
TORSDOF 8
ENDMDL
MODEL      841
REMARK  Name = ZINC23697642
REMARK  10 active torsions:
REMARK  status: ('A' for Active; 'I' for Inactive)
REMARK    1  A    between atoms: C_1  and  C_2
REMARK    2  A    between atoms: C_2  and  C_3
REMARK    3  A    between atoms: C_3  and  C_19
REMARK    4  A    between atoms: N_6  and  N_10
REMARK    5  A    between atoms: C_11  and  C_13
REMARK    6  A    between atoms: C_13  and  N_14
REMARK    7  A    between atoms: N_14  and  C_15
REMARK    8  A    between atoms: C_15  and  C_16
REMARK    9  A    between atoms: C_15  and  C_17
REMARK   10  A    between atoms: C_15  and  C_18
REMARK                            x       y       z     vdW  Elec       q    Type
REMARK                         _______ _______ _______ _____ _____    ______ ____
ROOT
ATOM      1  C   UNL     1       5.568  -0.356   3.754  0.00  0.00    +0.000 C 
ATOM      2  C   UNL     1       5.071  -0.117   2.342  0.00  0.00    +0.000 C 
ATOM      3  O   UNL     1       5.446  -0.669   1.331  0.00  0.00    +0.000 OA
ATOM      4  N   UNL     1       4.126   0.838   2.446  0.00  0.00    +0.000 N 
ATOM      5  C   UNL     1       3.961   1.235   3.713  0.00  0.00    +0.000 C 
ATOM      6  O   UNL     1       3.168   2.089   4.056  0.00  0.00    +0.000 OA
ATOM      7  N   UNL     1       4.770   0.579   4.566  0.00  0.00    +0.000 NA
ENDROOT
BRANCH   1   8
ATOM      8  C   UNL     1       7.037  -0.036   3.861  0.00  0.00    +0.000 A 
ATOM      9  C   UNL     1       7.978  -1.025   3.644  0.00  0.00    +0.000 A 
ATOM     10  C   UNL     1       9.325  -0.730   3.737  0.00  0.00    +0.000 A 
ATOM     11  C   UNL     1       9.731   0.552   4.058  0.00  0.00    +0.000 A 
ATOM     12  C   UNL     1       8.790   1.540   4.280  0.00  0.00    +0.000 A 
ATOM     13  C   UNL     1       7.443   1.246   4.182  0.00  0.00    +0.000 A 
ENDBRANCH   1   8
BRANCH   4  14
ATOM     14  N   UNL     1       3.408   1.356   1.360  0.00  0.00    +0.000 N 
ATOM     15  C   UNL     1       2.125   0.993   1.166  0.00  0.00    +0.000 C 
ATOM     16  O   UNL     1       1.591   0.218   1.931  0.00  0.00    +0.000 OA
ATOM     17  H   UNL     1       3.861   2.014   0.710  0.00  0.00    +0.000 HD
BRANCH  15  18
ATOM     18  C   UNL     1       1.353   1.550  -0.003  0.00  0.00    +0.000 C 
BRANCH  18  19
ATOM     19  N   UNL     1      -0.012   1.005   0.008  0.00  0.00    +0.000 N 
ATOM     20  H   UNL     1      -0.475   1.262   0.891  0.00  0.00    +0.000 HD
ATOM     21  H   UNL     1       0.033  -0.022  -0.057  0.00  0.00    +0.000 HD
BRANCH  19  22
ATOM     22  C   UNL     1      -0.795   1.527  -1.120  0.00  0.00    +0.000 C 
ATOM     23  C   UNL     1      -0.120   1.135  -2.436  0.00  0.00    +0.000 C 
ATOM     24  C   UNL     1      -2.207   0.938  -1.076  0.00  0.00    +0.000 C 
ATOM     25  C   UNL     1      -0.876   3.052  -1.022  0.00  0.00    +0.000 C 
ENDBRANCH  19  22
ENDBRANCH  18  19
ENDBRANCH  15  18
ENDBRANCH   4  14
BRANCH   1  27
ATOM     26  C   UNL     1       3.799  -2.084   4.114  0.00  0.00    +0.000 C 
ATOM     27  C   UNL     1       5.302  -1.801   4.181  0.00  0.00    +0.000 C 
ENDBRANCH   1  27
TORSDOF 6
ENDMDL
MODEL      842
REMARK  Name = ZINC19848534
REMARK  6 active torsions:
REMARK  status: ('A' for Active; 'I' for Inactive)
REMARK    1  A    between atoms: C_6  and  C_7
REMARK    2  A    between atoms: C_7  and  N_8
REMARK    3  A    between atoms: C_9  and  C_11
REMARK    4  A    between atoms: N_13  and  C_14
REMARK    5  A    between atoms: C_14  and  C_15
REMARK    6  A    between atoms: C_15  and  N_16
REMARK                            x       y       z     vdW  Elec       q    Type
REMARK                         _______ _______ _______ _____ _____    ______ ____
ROOT
ATOM      1  N   UNL     1      -2.925   0.717   1.402  0.00  0.00    +0.000 N 
ATOM      2  C   UNL     1      -4.060   0.034   1.650  0.00  0.00    +0.000 C 
ATOM      3  O   UNL     1      -4.741  -0.366   0.729  0.00  0.00    +0.000 OA
ATOM      4  H   UNL     1      -2.346   1.056   2.183  0.00  0.00    +0.000 HD
ENDROOT
BRANCH   2   5
ATOM      5  C   UNL     1      -4.481  -0.229   3.060  0.00  0.00    +0.000 C 
ATOM      6  O   UNL     1      -3.800   0.172   3.981  0.00  0.00    +0.000 OA
ATOM      7  N   UNL     1      -5.616  -0.911   3.308  0.00  0.00    +0.000 N 
ATOM      8  H   UNL     1      -6.194  -1.251   2.526  0.00  0.00    +0.000 HD
BRANCH   7   9
ATOM      9  C   UNL     1      -6.028  -1.169   4.690  0.00  0.00    +0.000 C 
BRANCH   9  10
ATOM     10  C   UNL     1      -7.341  -1.955   4.692  0.00  0.00    +0.000 C 
BRANCH  10  11
ATOM     11  N   UNL     1      -7.754  -2.214   6.078  0.00  0.00    +0.000 NA
ATOM     12  C   UNL     1      -7.641  -0.999   6.897  0.00  0.00    +0.000 C 
ATOM     13  C   UNL     1      -8.004  -1.328   8.347  0.00  0.00    +0.000 C 
ATOM     14  N   UNL     1      -9.369  -1.869   8.397  0.00  0.00    +0.000 N 
ATOM     15  C   UNL     1      -9.482  -3.084   7.578  0.00  0.00    +0.000 C 
ATOM     16  C   UNL     1      -9.120  -2.755   6.128  0.00  0.00    +0.000 C 
ATOM     17  H   UNL     1      -9.611  -2.094   9.373  0.00  0.00    +0.000 HD
ATOM     18  H   UNL     1     -10.030  -1.161   8.046  0.00  0.00    +0.000 HD
ENDBRANCH  10  11
ENDBRANCH   9  10
ENDBRANCH   7   9
ENDBRANCH   2   5
BRANCH   1  19
ATOM     19  C   UNL     1      -2.512   0.975   0.020  0.00  0.00    +0.000 C 
BRANCH  19  25
ATOM     20  C   UNL     1      -0.013   1.076   0.008  0.00  0.00    +0.000 A 
ATOM     21  C   UNL     1       1.176   1.782   0.000  0.00  0.00    +0.000 A 
ATOM     22  C   UNL     1       1.160   3.167   0.008  0.00  0.00    +0.000 A 
ATOM     23  C   UNL     1      -0.057   3.845   0.023  0.00  0.00    +0.000 A 
ATOM     24  C   UNL     1      -1.244   3.132   0.030  0.00  0.00    +0.000 A 
ATOM     25  C   UNL     1      -1.220   1.749   0.017  0.00  0.00    +0.000 A 
ATOM     26  O   UNL     1       0.193   5.187   0.028  0.00  0.00    +0.000 OA
ATOM     27  C   UNL     1       1.562   5.326  -0.396  0.00  0.00    +0.000 C 
ATOM     28  O   UNL     1       2.171   4.084   0.004  0.00  0.00    +0.000 OA
ENDBRANCH  19  25
ENDBRANCH   1  19
TORSDOF 6
ENDMDL
MODEL      843
REMARK  Name = ZINC31819620
REMARK  8 active torsions:
REMARK  status: ('A' for Active; 'I' for Inactive)
REMARK    1  A    between atoms: C_1  and  C_2
REMARK    2  A    between atoms: C_5  and  C_7
REMARK    3  A    between atoms: C_7  and  C_8
REMARK    4  A    between atoms: C_7  and  C_10
REMARK    5  A    between atoms: C_10  and  C_12
REMARK    6  A    between atoms: C_12  and  S_13
REMARK    7  A    between atoms: S_13  and  C_14
REMARK    8  A    between atoms: C_18  and  N_20
REMARK                            x       y       z     vdW  Elec       q    Type
REMARK                         _______ _______ _______ _____ _____    ______ ____
ROOT
ATOM      1  S   UNL     1      -1.566   2.158   0.021  0.00  0.00    +0.000 S 
ENDROOT
BRANCH   1   2
ATOM      2  C   UNL     1      -0.016   1.321   0.009  0.00  0.00    +0.000 A 
ATOM      3  N   UNL     1       1.102   2.033   0.003  0.00  0.00    +0.000 N 
ATOM      4  C   UNL     1       2.291   1.435  -0.012  0.00  0.00    +0.000 A 
ATOM      5  C   UNL     1       2.349   0.044  -0.020  0.00  0.00    +0.000 A 
ATOM      6  C   UNL     1       1.154  -0.670  -0.013  0.00  0.00    +0.000 A 
ATOM      7  N   UNL     1       0.002  -0.004   0.002  0.00  0.00    +0.000 NA
ATOM      8  N   UNL     1       3.455   2.187  -0.019  0.00  0.00    +0.000 N 
ATOM      9  H   UNL     1       1.050   3.061   0.009  0.00  0.00    +0.000 HD
ATOM     10  H   UNL     1       3.398   3.215  -0.012  0.00  0.00    +0.000 HD
ATOM     11  H   UNL     1       4.373   1.720  -0.030  0.00  0.00    +0.000 HD
BRANCH   6  12
ATOM     12  N   UNL     1       1.164  -2.056  -0.020  0.00  0.00    +0.000 N 
ATOM     13  H   UNL     1       2.063  -2.560  -0.031  0.00  0.00    +0.000 HD
ATOM     14  H   UNL     1       0.278  -2.581  -0.014  0.00  0.00    +0.000 HD
ENDBRANCH   6  12
ENDBRANCH   1   2
BRANCH   1  15
ATOM     15  C   UNL     1      -0.996   3.876   0.028  0.00  0.00    +0.000 C 
BRANCH  15  16
ATOM     16  C   UNL     1      -2.186   4.800   0.038  0.00  0.00    +0.000 C 
ATOM     17  O   UNL     1      -3.304   4.345   0.041  0.00  0.00    +0.000 OA
BRANCH  16  18
ATOM     18  C   UNL     1      -1.981   6.293   0.045  0.00  0.00    +0.000 C 
BRANCH  18  23
ATOM     19  C   UNL     1      -4.485   9.159  -3.201  0.00  0.00    +0.000 C 
ATOM     20  C   UNL     1      -4.413   8.266  -1.989  0.00  0.00    +0.000 A 
ATOM     21  C   UNL     1      -5.529   7.976  -1.273  0.00  0.00    +0.000 A 
ATOM     22  S   UNL     1      -4.842   6.912  -0.012  0.00  0.00    +0.000 S 
ATOM     23  C   UNL     1      -3.191   6.970  -0.546  0.00  0.00    +0.000 A 
ATOM     24  N   UNL     1      -3.267   7.749  -1.600  0.00  0.00    +0.000 NA
ENDBRANCH  18  23
BRANCH  18  25
ATOM     25  C   UNL     1      -1.787   6.755   1.430  0.00  0.00    +0.000 C 
ATOM     26  N   UNL     1      -1.638   7.112   2.498  0.00  0.00    +0.000 NA
ENDBRANCH  18  25
ENDBRANCH  16  18
ENDBRANCH  15  16
ENDBRANCH   1  15
TORSDOF 7
ENDMDL
MODEL      844
REMARK  Name = ZINC05840097
REMARK  8 active torsions:
REMARK  status: ('A' for Active; 'I' for Inactive)
REMARK    1  A    between atoms: C_1  and  C_2
REMARK    2  A    between atoms: C_2  and  N_23
REMARK    3  A    between atoms: C_3  and  C_4
REMARK    4  A    between atoms: C_3  and  N_23
REMARK    5  A    between atoms: C_5  and  C_6
REMARK    6  A    between atoms: C_5  and  N_23
REMARK    7  A    between atoms: C_8  and  N_13
REMARK    8  A    between atoms: C_11  and  O_12
REMARK                            x       y       z     vdW  Elec       q    Type
REMARK                         _______ _______ _______ _____ _____    ______ ____
ROOT
ATOM      1  C   UNL     1       4.549   4.566  -4.241  0.00  0.00    +0.000 A 
ATOM      2  C   UNL     1       4.374   3.415  -3.498  0.00  0.00    +0.000 A 
ATOM      3  C   UNL     1       3.219   3.244  -2.745  0.00  0.00    +0.000 A 
ATOM      4  C   UNL     1       2.247   4.236  -2.732  0.00  0.00    +0.000 A 
ATOM      5  C   UNL     1       2.426   5.388  -3.471  0.00  0.00    +0.000 A 
ATOM      6  C   UNL     1       3.577   5.555  -4.228  0.00  0.00    +0.000 A 
ENDROOT
BRANCH   3   7
ATOM      7  N   UNL     1       3.038   2.076  -1.996  0.00  0.00    +0.000 N 
ATOM      8  C   UNL     1       1.799   1.574  -1.819  0.00  0.00    +0.000 C 
ATOM      9  N   UNL     1       0.750   2.105  -2.422  0.00  0.00    +0.000 NA
ATOM     10  C   UNL     1      -0.482   1.616  -2.337  0.00  0.00    +0.000 C 
ATOM     11  N   UNL     1      -0.734   0.386  -1.902  0.00  0.00    +0.000 NA
ATOM     12  C   UNL     1       0.325  -0.309  -1.490  0.00  0.00    +0.000 C 
ATOM     13  N   UNL     1       0.661  -1.559  -1.612  0.00  0.00    +0.000 NA
ATOM     14  C   UNL     1       1.967  -1.740  -1.376  0.00  0.00    +0.000 C 
ATOM     15  N   UNL     1       2.581  -0.649  -1.011  0.00  0.00    +0.000 NA
ATOM     16  C   UNL     1       1.556   0.387  -0.925  0.00  0.00    +0.000 C 
ATOM     17  H   UNL     1       3.851   1.600  -1.580  0.00  0.00    +0.000 HD
ENDBRANCH   3   7
BRANCH   6  18
ATOM     18  O   UNL     1       3.753   6.690  -4.956  0.00  0.00    +0.000 OA
ATOM     19  H   UNL     1       3.896   6.378  -5.884  0.00  0.00    +0.000 HD
ENDBRANCH   6  18
BRANCH   1  20
ATOM     20  C   UNL     1       5.799   4.748  -5.062  0.00  0.00    +0.000 C 
BRANCH  20  21
ATOM     21  N   UNL     1       5.539   4.265  -6.435  0.00  0.00    +0.000 N 
ATOM     22  H   UNL     1       4.984   3.398  -6.384  0.00  0.00    +0.000 HD
BRANCH  21  24
ATOM     23  C   UNL     1       5.541   6.604  -7.236  0.00  0.00    +0.000 C 
ATOM     24  C   UNL     1       4.776   5.280  -7.191  0.00  0.00    +0.000 C 
ENDBRANCH  21  24
BRANCH  21  25
ATOM     25  C   UNL     1       6.816   3.978  -7.121  0.00  0.00    +0.000 C 
ATOM     26  C   UNL     1       6.521   3.205  -8.407  0.00  0.00    +0.000 C 
ENDBRANCH  21  25
ENDBRANCH  20  21
ENDBRANCH   1  20
TORSDOF 6
ENDMDL
MODEL      845
REMARK  Name = ZINC00000843
REMARK  11 active torsions:
REMARK  status: ('A' for Active; 'I' for Inactive)
REMARK    1  A    between atoms: C_1  and  N_2
REMARK    2  A    between atoms: N_7  and  C_10
REMARK    3  A    between atoms: N_11  and  C_14
REMARK    4  A    between atoms: C_14  and  C_15
REMARK    5  A    between atoms: C_15  and  C_16
REMARK    6  A    between atoms: C_15  and  O_21
REMARK    7  A    between atoms: C_16  and  N_22
REMARK    8  A    between atoms: C_17  and  N_22
REMARK    9  A    between atoms: C_18  and  C_19
REMARK   10  A    between atoms: C_18  and  N_22
REMARK   11  A    between atoms: C_19  and  O_20
REMARK                            x       y       z     vdW  Elec       q    Type
REMARK                         _______ _______ _______ _____ _____    ______ ____
ROOT
ATOM      1  C   UNL     1       0.160   5.361   0.042  0.00  0.00    +0.000 C 
ATOM      2  N   UNL     1       0.096   3.897   0.030  0.00  0.00    +0.000 N 
ATOM      3  C   UNL     1      -1.134   3.259   0.040  0.00  0.00    +0.000 A 
ATOM      4  C   UNL     1      -1.168   1.870   0.022  0.00  0.00    +0.000 A 
ATOM      5  C   UNL     1       0.047   1.152   0.007  0.00  0.00    +0.000 A 
ATOM      6  O   UNL     1       0.043  -0.066  -0.004  0.00  0.00    +0.000 OA
ATOM      7  N   UNL     1       1.213   1.831  -0.002  0.00  0.00    +0.000 N 
ATOM      8  C   UNL     1       1.232   3.175   0.010  0.00  0.00    +0.000 A 
ATOM      9  O   UNL     1       2.302   3.752   0.002  0.00  0.00    +0.000 OA
ATOM     10  C   UNL     1       2.478   1.092  -0.024  0.00  0.00    +0.000 C 
ATOM     11  N   UNL     1      -2.503   1.516   0.041  0.00  0.00    +0.000 N 
ATOM     12  C   UNL     1      -3.213   2.661   0.059  0.00  0.00    +0.000 A 
ATOM     13  N   UNL     1      -2.399   3.686   0.058  0.00  0.00    +0.000 NA
ENDROOT
BRANCH  11  14
ATOM     14  C   UNL     1      -3.044   0.155   0.035  0.00  0.00    +0.000 C 
BRANCH  14  15
ATOM     15  C   UNL     1      -3.099  -0.378   1.468  0.00  0.00    +0.000 C 
BRANCH  15  16
ATOM     16  O   UNL     1      -1.771  -0.501   1.982  0.00  0.00    +0.000 OA
ATOM     17  H   UNL     1      -1.331   0.386   1.977  0.00  0.00    +0.000 HD
ENDBRANCH  15  16
BRANCH  15  18
ATOM     18  C   UNL     1      -3.778  -1.749   1.477  0.00  0.00    +0.000 C 
BRANCH  18  20
ATOM     19  C   UNL     1      -4.035  -3.711   2.873  0.00  0.00    +0.000 C 
ATOM     20  N   UNL     1      -3.817  -2.249   2.868  0.00  0.00    +0.000 N 
ATOM     21  H   UNL     1      -2.916  -2.043   3.322  0.00  0.00    +0.000 HD
BRANCH  20  22
ATOM     22  C   UNL     1      -4.898  -1.574   3.617  0.00  0.00    +0.000 C 
BRANCH  22  23
ATOM     23  C   UNL     1      -4.774  -1.940   5.097  0.00  0.00    +0.000 C 
BRANCH  23  24
ATOM     24  O   UNL     1      -3.545  -1.426   5.614  0.00  0.00    +0.000 OA
ATOM     25  H   UNL     1      -3.530  -0.441   5.516  0.00  0.00    +0.000 HD
ENDBRANCH  23  24
ENDBRANCH  22  23
ENDBRANCH  20  22
ENDBRANCH  18  20
ENDBRANCH  15  18
ENDBRANCH  14  15
ENDBRANCH  11  14
TORSDOF 8
ENDMDL
MODEL      846
REMARK  Name = ZINC23989706
REMARK  9 active torsions:
REMARK  status: ('A' for Active; 'I' for Inactive)
REMARK    1  A    between atoms: C_1  and  C_2
REMARK    2  A    between atoms: N_11  and  C_23
REMARK    3  A    between atoms: N_15  and  C_16
REMARK    4  A    between atoms: C_16  and  C_17
REMARK    5  A    between atoms: C_17  and  N_18
REMARK    6  A    between atoms: N_18  and  C_19
REMARK    7  A    between atoms: C_19  and  C_20
REMARK    8  A    between atoms: C_20  and  O_21
REMARK    9  A    between atoms: O_21  and  C_22
REMARK                            x       y       z     vdW  Elec       q    Type
REMARK                         _______ _______ _______ _____ _____    ______ ____
ROOT
ATOM      1  C   UNL     1      -1.446  -2.333  -2.547  0.00  0.00    +0.000 C 
ATOM      2  C   UNL     1      -1.419  -2.806  -1.116  0.00  0.00    +0.000 A 
ATOM      3  C   UNL     1      -1.393  -4.074  -0.715  0.00  0.00    +0.000 A 
ATOM      4  N   UNL     1      -1.379  -4.091   0.669  0.00  0.00    +0.000 N 
ATOM      5  C   UNL     1      -1.358  -4.904   1.793  0.00  0.00    +0.000 A 
ATOM      6  C   UNL     1      -1.338  -6.293   2.003  0.00  0.00    +0.000 A 
ATOM      7  O   UNL     1      -1.337  -7.059   1.056  0.00  0.00    +0.000 OA
ATOM      8  N   UNL     1      -1.320  -6.770   3.265  0.00  0.00    +0.000 N 
ATOM      9  C   UNL     1      -1.320  -5.938   4.321  0.00  0.00    +0.000 A 
ATOM     10  O   UNL     1      -1.303  -6.405   5.444  0.00  0.00    +0.000 OA
ATOM     11  N   UNL     1      -1.339  -4.601   4.167  0.00  0.00    +0.000 N 
ATOM     12  C   UNL     1      -1.359  -4.050   2.894  0.00  0.00    +0.000 A 
ATOM     13  N   UNL     1      -1.379  -2.802   2.433  0.00  0.00    +0.000 NA
ATOM     14  C   UNL     1      -1.392  -2.811   1.107  0.00  0.00    +0.000 A 
ATOM     15  N   UNL     1      -1.413  -1.998   0.005  0.00  0.00    +0.000 N 
ATOM     16  C   UNL     1      -1.339  -3.728   5.343  0.00  0.00    +0.000 C 
ATOM     17  H   UNL     1      -1.305  -7.787   3.421  0.00  0.00    +0.000 HD
ENDROOT
BRANCH  15  18
ATOM     18  C   UNL     1      -1.433  -0.534   0.013  0.00  0.00    +0.000 C 
BRANCH  18  19
ATOM     19  C   UNL     1       0.002  -0.004   0.002  0.00  0.00    +0.000 C 
BRANCH  19  20
ATOM     20  N   UNL     1      -0.018   1.465   0.010  0.00  0.00    +0.000 N 
ATOM     21  H   UNL     1      -0.524   1.802  -0.821  0.00  0.00    +0.000 HD
ATOM     22  H   UNL     1      -0.508   1.794   0.854  0.00  0.00    +0.000 HD
BRANCH  20  23
ATOM     23  C   UNL     1       1.346   2.010   0.000  0.00  0.00    +0.000 C 
BRANCH  23  24
ATOM     24  C   UNL     1       1.285   3.539   0.009  0.00  0.00    +0.000 C 
BRANCH  24  25
ATOM     25  O   UNL     1       0.708   3.985   1.238  0.00  0.00    +0.000 OA
ATOM     26  C   UNL     1       0.604   5.406   1.349  0.00  0.00    +0.000 C 
ENDBRANCH  24  25
ENDBRANCH  23  24
ENDBRANCH  20  23
ENDBRANCH  19  20
ENDBRANCH  18  19
ENDBRANCH  15  18
TORSDOF 6
ENDMDL
MODEL      847
REMARK  Name = ZINC08513934
REMARK  7 active torsions:
REMARK  status: ('A' for Active; 'I' for Inactive)
REMARK    1  A    between atoms: C_6  and  N_7
REMARK    2  A    between atoms: C_8  and  C_10
REMARK    3  A    between atoms: C_10  and  S_11
REMARK    4  A    between atoms: S_11  and  C_12
REMARK    5  A    between atoms: C_12  and  C_13
REMARK    6  A    between atoms: C_13  and  C_14
REMARK    7  A    between atoms: C_13  and  N_18
REMARK                            x       y       z     vdW  Elec       q    Type
REMARK                         _______ _______ _______ _____ _____    ______ ____
ROOT
ATOM      1  N   UNK     1      -1.640  -1.854   0.008  0.00  0.00    +0.000 N 
ATOM      2  C   UNK     1      -1.412  -0.526   0.015  0.00  0.00    +0.000 C 
ATOM      3  O   UNK     1      -2.344   0.250   0.036  0.00  0.00    +0.000 OA
ATOM      4  H   UNK     1      -0.852  -2.512  -0.082  0.00  0.00    +0.000 HD
ENDROOT
BRANCH   1  10
ATOM      5  C   UNK     1      -3.192  -3.521   0.811  0.00  0.00    +0.000 A 
ATOM      6  C   UNK     1      -4.484  -3.995   0.929  0.00  0.00    +0.000 A 
ATOM      7  C   UNK     1      -5.533  -3.300   0.352  0.00  0.00    +0.000 A 
ATOM      8  C   UNK     1      -5.291  -2.126  -0.339  0.00  0.00    +0.000 A 
ATOM      9  C   UNK     1      -4.002  -1.644  -0.454  0.00  0.00    +0.000 A 
ATOM     10  C   UNK     1      -2.947  -2.340   0.123  0.00  0.00    +0.000 A 
ATOM     11 BR   UNK     1      -7.299  -3.956   0.509  0.00  0.00    +0.000 Br
ENDBRANCH   1  10
BRANCH   2  12
ATOM     12  C   UNK     1       0.002  -0.004  -0.005  0.00  0.00    +0.000 C 
BRANCH  12  13
ATOM     13  S   UNK     1      -0.022   1.810   0.010  0.00  0.00    +0.000 S 
BRANCH  13  14
ATOM     14  C   UNK     1       1.732   2.272  -0.015  0.00  0.00    +0.000 C 
BRANCH  14  15
ATOM     15  C   UNK     1       1.857   3.797  -0.005  0.00  0.00    +0.000 C 
BRANCH  15  16
ATOM     16  N   UNK     1       1.339   4.348   1.260  0.00  0.00    +0.000 N 
ATOM     17  H   UNK     1       1.878   3.954   2.044  0.00  0.00    +0.000 HD
ATOM     18  H   UNK     1       0.349   4.084   1.362  0.00  0.00    +0.000 HD
ATOM     19  H   UNK     1       1.427   5.374   1.258  0.00  0.00    +0.000 HD
ENDBRANCH  15  16
BRANCH  15  20
ATOM     20  C   UNK     1       3.307   4.183  -0.150  0.00  0.00    +0.000 C 
ATOM     21  O   UNK     1       3.948   4.498   0.824  0.00  0.00    +0.000 OA
ATOM     22  O   UNK     1       3.885   4.177  -1.362  0.00  0.00    +0.000 OA
ENDBRANCH  15  20
ENDBRANCH  14  15
ENDBRANCH  13  14
ENDBRANCH  12  13
ENDBRANCH   2  12
TORSDOF 7
ENDMDL
MODEL      848
REMARK  Name = ZINC08615535
REMARK  10 active torsions:
REMARK  status: ('A' for Active; 'I' for Inactive)
REMARK    1  A    between atoms: C_1  and  C_2
REMARK    2  A    between atoms: C_2  and  C_21
REMARK    3  A    between atoms: N_7  and  C_8
REMARK    4  A    between atoms: C_11  and  N_14
REMARK    5  A    between atoms: N_14  and  C_15
REMARK    6  A    between atoms: N_14  and  C_18
REMARK    7  A    between atoms: C_15  and  C_16
REMARK    8  A    between atoms: C_16  and  O_17
REMARK    9  A    between atoms: C_18  and  C_19
REMARK   10  A    between atoms: C_19  and  O_20
REMARK                            x       y       z     vdW  Elec       q    Type
REMARK                         _______ _______ _______ _____ _____    ______ ____
ROOT
ATOM      1  C   UNL     1      -3.255   0.007  -2.153  0.00  0.00    +0.000 C 
ATOM      2  C   UNL     1      -1.739  -0.182  -2.230  0.00  0.00    +0.000 C 
ATOM      3  N   UNL     1      -1.261  -0.885  -1.025  0.00  0.00    +0.000 N 
ATOM      4  C   UNL     1      -1.200  -0.149   0.152  0.00  0.00    +0.000 C 
ATOM      5  N   UNL     1      -0.664   1.134   0.051  0.00  0.00    +0.000 N 
ATOM      6  C   UNL     1      -1.013   1.853  -1.091  0.00  0.00    +0.000 C 
ATOM      7  N   UNL     1      -1.073   1.132  -2.276  0.00  0.00    +0.000 N 
ATOM      8  C   UNL     1      -1.380  -0.991  -3.478  0.00  0.00    +0.000 C 
ATOM      9  N   UNL     1      -1.644  -0.696   1.273  0.00  0.00    +0.000 N 
ATOM     10  N   UNL     1      -1.283   3.150  -1.115  0.00  0.00    +0.000 N 
ATOM     11  H   UNL     1      -0.984  -1.876  -1.054  0.00  0.00    +0.000 HD
ATOM     12  H   UNL     1      -0.048   1.527   0.777  0.00  0.00    +0.000 HD
ATOM     13  H   UNL     1      -2.029  -1.652   1.277  0.00  0.00    +0.000 HD
ATOM     14  H   UNL     1      -1.603  -0.158   2.150  0.00  0.00    +0.000 HD
ATOM     15  H   UNL     1      -1.226   3.647  -0.215  0.00  0.00    +0.000 HD
ATOM     16  H   UNL     1      -1.537   3.647  -1.980  0.00  0.00    +0.000 HD
ENDROOT
BRANCH   7  17
ATOM     17  C   UNL     1      -0.524   1.632  -3.465  0.00  0.00    +0.000 A 
ATOM     18  C   UNL     1       0.829   1.464  -3.730  0.00  0.00    +0.000 A 
ATOM     19  C   UNL     1       1.368   1.951  -4.904  0.00  0.00    +0.000 A 
ATOM     20  C   UNL     1       0.560   2.621  -5.814  0.00  0.00    +0.000 A 
ATOM     21  C   UNL     1      -0.791   2.794  -5.546  0.00  0.00    +0.000 A 
ATOM     22  C   UNL     1      -1.332   2.301  -4.375  0.00  0.00    +0.000 A 
BRANCH  20  23
ATOM     23  N   UNL     1       1.108   3.121  -7.000  0.00  0.00    +0.000 N 
BRANCH  23  24
ATOM     24  C   UNL     1       2.534   2.938  -7.283  0.00  0.00    +0.000 C 
BRANCH  24  25
ATOM     25  C   UNL     1       2.739   1.625  -8.042  0.00  0.00    +0.000 C 
BRANCH  25  26
ATOM     26  O   UNL     1       2.108   1.712  -9.321  0.00  0.00    +0.000 OA
ATOM     27  H   UNL     1       2.507   2.456  -9.838  0.00  0.00    +0.000 HD
ENDBRANCH  25  26
ENDBRANCH  24  25
ENDBRANCH  23  24
BRANCH  23  28
ATOM     28  C   UNL     1       0.256   3.827  -7.960  0.00  0.00    +0.000 C 
BRANCH  28  29
ATOM     29  C   UNL     1       0.251   5.322  -7.633  0.00  0.00    +0.000 C 
BRANCH  29  30
ATOM     30  O   UNL     1       1.562   5.857  -7.827  0.00  0.00    +0.000 OA
ATOM     31  H   UNL     1       1.837   5.726  -8.769  0.00  0.00    +0.000 HD
ENDBRANCH  29  30
ENDBRANCH  28  29
ENDBRANCH  23  28
ENDBRANCH  20  23
ENDBRANCH   7  17
TORSDOF 8
ENDMDL
MODEL      849
REMARK  Name = ZINC20527822
REMARK  6 active torsions:
REMARK  status: ('A' for Active; 'I' for Inactive)
REMARK    1  A    between atoms: C_7  and  C_10
REMARK    2  A    between atoms: N_11  and  N_12
REMARK    3  A    between atoms: C_16  and  S_19
REMARK    4  A    between atoms: N_17  and  N_18
REMARK    5  A    between atoms: S_19  and  C_20
REMARK    6  A    between atoms: C_20  and  C_21
REMARK                            x       y       z     vdW  Elec       q    Type
REMARK                         _______ _______ _______ _____ _____    ______ ____
ROOT
ATOM      1  N   UNL     1      -4.832   1.765   0.032  0.00  0.00    +0.000 N 
ATOM      2  C   UNL     1      -5.878   2.677   0.041  0.00  0.00    +0.000 A 
ATOM      3  N   UNL     1      -5.762   3.983   0.052  0.00  0.00    +0.000 NA
ATOM      4  N   UNL     1      -7.051   4.532   0.056  0.00  0.00    +0.000 NA
ATOM      5  C   UNL     1      -7.912   3.543   0.054  0.00  0.00    +0.000 A 
ATOM      6  N   UNL     1      -7.210   2.371   0.045  0.00  0.00    +0.000 N 
ATOM      7  H   UNL     1      -5.030   0.755   0.028  0.00  0.00    +0.000 HD
ENDROOT
BRANCH   6   8
ATOM      8  N   UNL     1      -7.746   1.114   0.040  0.00  0.00    +0.000 N 
ATOM      9  H   UNL     1      -7.067   0.339   0.033  0.00  0.00    +0.000 HD
ATOM     10  H   UNL     1      -8.761   0.936   0.044  0.00  0.00    +0.000 HD
ENDBRANCH   6   8
BRANCH   1  12
ATOM     11  C   UNL     1      -2.528   1.366   0.020  0.00  0.00    +0.000 C 
ATOM     12  N   UNL     1      -3.507   2.220   0.029  0.00  0.00    +0.000 NA
BRANCH  11  19
ATOM     13  C   UNL     1      -0.622   5.634   0.036  0.00  0.00    +0.000 A 
ATOM     14  C   UNL     1       0.765   5.599   0.023  0.00  0.00    +0.000 A 
ATOM     15  C   UNL     1       1.437   4.396   0.011  0.00  0.00    +0.000 A 
ATOM     16  C   UNL     1       0.719   3.204   0.012  0.00  0.00    +0.000 A 
ATOM     17  C   UNL     1      -0.685   3.247   0.025  0.00  0.00    +0.000 A 
ATOM     18  C   UNL     1      -1.345   4.474   0.037  0.00  0.00    +0.000 A 
ATOM     19  C   UNL     1      -1.135   1.844   0.017  0.00  0.00    +0.000 A 
ATOM     20  C   UNL     1      -0.013   1.076   0.008  0.00  0.00    +0.000 A 
ATOM     21  N   UNL     1       1.093   1.877   0.002  0.00  0.00    +0.000 N 
ATOM     22  H   UNL     1       2.065   1.539  -0.009  0.00  0.00    +0.000 HD
ENDBRANCH  11  19
ENDBRANCH   1  12
BRANCH   5  23
ATOM     23  S   UNL     1      -9.667   3.699   0.063  0.00  0.00    +0.000 S 
BRANCH  23  24
ATOM     24  C   UNL     1      -9.949   5.491   0.073  0.00  0.00    +0.000 C 
BRANCH  24  25
ATOM     25  C   UNL     1     -11.430   5.767   0.082  0.00  0.00    +0.000 C 
ATOM     26  O   UNL     1     -12.219   4.846   0.081  0.00  0.00    +0.000 OA
ATOM     27  N   UNL     1     -11.879   7.038   0.090  0.00  0.00    +0.000 N 
ATOM     28  H   UNL     1     -11.209   7.821   0.091  0.00  0.00    +0.000 HD
ATOM     29  H   UNL     1     -12.891   7.227   0.096  0.00  0.00    +0.000 HD
ENDBRANCH  24  25
ENDBRANCH  23  24
ENDBRANCH   5  23
TORSDOF 6
ENDMDL
MODEL      850
REMARK  Name = ZINC25394656
REMARK  8 active torsions:
REMARK  status: ('A' for Active; 'I' for Inactive)
REMARK    1  A    between atoms: C_1  and  O_2
REMARK    2  A    between atoms: O_2  and  C_3
REMARK    3  A    between atoms: C_6  and  N_11
REMARK    4  A    between atoms: C_7  and  O_9
REMARK    5  A    between atoms: O_9  and  C_10
REMARK    6  A    between atoms: C_12  and  C_14
REMARK    7  A    between atoms: C_14  and  N_15
REMARK    8  A    between atoms: C_19  and  C_21
REMARK                            x       y       z     vdW  Elec       q    Type
REMARK                         _______ _______ _______ _____ _____    ______ ____
ROOT
ATOM      1  N   UNL     1      -0.590   1.986   3.622  0.00  0.00    +0.000 N 
ATOM      2  C   UNL     1      -0.072   1.615   2.435  0.00  0.00    +0.000 C 
ATOM      3  O   UNL     1       0.975   1.003   2.395  0.00  0.00    +0.000 OA
ATOM      4  H   UNL     1      -1.433   2.578   3.653  0.00  0.00    +0.000 HD
ENDROOT
BRANCH   1   8
ATOM      5  C   UNL     1       1.216   0.734   7.172  0.00  0.00    +0.000 A 
ATOM      6  C   UNL     1       1.381  -0.004   6.009  0.00  0.00    +0.000 A 
ATOM      7  C   UNL     1       0.784   0.410   4.834  0.00  0.00    +0.000 A 
ATOM      8  C   UNL     1       0.017   1.566   4.815  0.00  0.00    +0.000 A 
ATOM      9  C   UNL     1      -0.146   2.311   5.980  0.00  0.00    +0.000 A 
ATOM     10  C   UNL     1       0.450   1.890   7.158  0.00  0.00    +0.000 A 
BRANCH   9  11
ATOM     11  O   UNL     1      -0.893   3.447   5.963  0.00  0.00    +0.000 OA
ATOM     12  C   UNL     1      -1.016   4.161   7.195  0.00  0.00    +0.000 C 
ENDBRANCH   9  11
BRANCH   5  14
ATOM     13  C   UNL     1       2.581  -0.875   8.268  0.00  0.00    +0.000 C 
ATOM     14  O   UNL     1       1.806   0.324   8.326  0.00  0.00    +0.000 OA
ENDBRANCH   5  14
ENDBRANCH   1   8
BRANCH   2  15
ATOM     15  C   UNL     1      -0.791   1.961   1.157  0.00  0.00    +0.000 C 
BRANCH  15  16
ATOM     16  N   UNL     1      -0.028   1.449   0.011  0.00  0.00    +0.000 NA
ATOM     17  C   UNL     1      -0.000  -0.019   0.010  0.00  0.00    +0.000 C 
ATOM     18  C   UNL     1       0.676  -0.517  -1.270  0.00  0.00    +0.000 C 
ATOM     19  C   UNL     1       2.101   0.039  -1.338  0.00  0.00    +0.000 C 
ATOM     20  C   UNL     1       2.046   1.568  -1.287  0.00  0.00    +0.000 C 
ATOM     21  C   UNL     1       1.331   2.006  -0.007  0.00  0.00    +0.000 C 
BRANCH  20  22
ATOM     22  C   UNL     1       3.448   2.122  -1.294  0.00  0.00    +0.000 C 
ATOM     23  O   UNL     1       3.836   2.803  -0.369  0.00  0.00    +0.000 OA
ATOM     24  N   UNL     1       4.270   1.860  -2.330  0.00  0.00    +0.000 N 
ATOM     25  H   UNL     1       3.941   1.282  -3.116  0.00  0.00    +0.000 HD
ATOM     26  H   UNL     1       5.228   2.239  -2.335  0.00  0.00    +0.000 HD
ENDBRANCH  20  22
ENDBRANCH  15  16
ENDBRANCH   2  15
TORSDOF 6
ENDMDL
MODEL      851
REMARK  Name = ZINC04896233
REMARK  7 active torsions:
REMARK  status: ('A' for Active; 'I' for Inactive)
REMARK    1  A    between atoms: C_1  and  C_2
REMARK    2  A    between atoms: C_3  and  C_16
REMARK    3  A    between atoms: C_4  and  S_12
REMARK    4  A    between atoms: C_9  and  C_11
REMARK    5  A    between atoms: S_12  and  C_13
REMARK    6  A    between atoms: C_16  and  C_17
REMARK    7  A    between atoms: C_17  and  C_18
REMARK                            x       y       z     vdW  Elec       q    Type
REMARK                         _______ _______ _______ _____ _____    ______ ____
ROOT
ATOM      1  C   UNL     1       3.085  -2.222  -0.409  0.00  0.00    +0.000 C 
ATOM      2  C   UNL     1       1.680  -1.706  -0.236  0.00  0.00    +0.000 A 
ATOM      3  C   UNL     1       0.622  -2.586  -0.119  0.00  0.00    +0.000 A 
ATOM      4  C   UNL     1      -0.664  -2.065   0.040  0.00  0.00    +0.000 A 
ATOM      5  N   UNL     1      -0.825  -0.746   0.073  0.00  0.00    +0.000 NA
ATOM      6  C   UNL     1       0.215   0.064  -0.043  0.00  0.00    +0.000 A 
ATOM      7  N   UNL     1       1.445  -0.402  -0.200  0.00  0.00    +0.000 NA
ATOM      8  N   UNL     1       0.011   1.438  -0.005  0.00  0.00    +0.000 N 
ATOM      9  C   UNL     1      -1.242   1.932   0.035  0.00  0.00    +0.000 C 
ATOM     10  O   UNL     1      -2.188   1.180   0.138  0.00  0.00    +0.000 OA
ATOM     11  C   UNL     1      -1.468   3.420  -0.047  0.00  0.00    +0.000 C 
ATOM     12  H   UNL     1       0.818   2.078  -0.008  0.00  0.00    +0.000 HD
ENDROOT
BRANCH   4  13
ATOM     13  S   UNL     1      -2.051  -3.140   0.194  0.00  0.00    +0.000 S 
BRANCH  13  14
ATOM     14  C   UNL     1      -3.357  -1.957   0.186  0.00  0.00    +0.000 C 
ATOM     15  N   UNL     1      -3.082  -0.683   0.190  0.00  0.00    +0.000 N 
ATOM     16  N   UNL     1      -4.667  -2.378   0.175  0.00  0.00    +0.000 N 
ATOM     17  H   UNL     1      -2.102  -0.367   0.198  0.00  0.00    +0.000 HD
ATOM     18  H   UNL     1      -3.845   0.009   0.185  0.00  0.00    +0.000 HD
ATOM     19  H   UNL     1      -4.884  -3.385   0.172  0.00  0.00    +0.000 HD
ATOM     20  H   UNL     1      -5.430  -1.686   0.170  0.00  0.00    +0.000 HD
ENDBRANCH  13  14
ENDBRANCH   4  13
BRANCH   3  21
ATOM     21  C   UNL     1       0.850  -4.075  -0.162  0.00  0.00    +0.000 C 
BRANCH  21  22
ATOM     22  C   UNL     1       0.756  -4.564  -1.609  0.00  0.00    +0.000 C 
BRANCH  22  23
ATOM     23  C   UNL     1       0.988  -6.076  -1.653  0.00  0.00    +0.000 C 
ATOM     24  O   UNL     1       2.337  -6.369  -1.254  0.00  0.00    +0.000 OA
ATOM     25  C   UNL     1       2.731  -7.493  -2.078  0.00  0.00    +0.000 C 
ATOM     26  C   UNL     1       2.020  -7.167  -3.415  0.00  0.00    +0.000 C 
ATOM     27  O   UNL     1       0.786  -6.556  -2.988  0.00  0.00    +0.000 OA
ENDBRANCH  22  23
ENDBRANCH  21  22
ENDBRANCH   3  21
TORSDOF 5
ENDMDL
MODEL      852
REMARK  Name = ZINC12563011
REMARK  10 active torsions:
REMARK  status: ('A' for Active; 'I' for Inactive)
REMARK    1  A    between atoms: C_1  and  O_2
REMARK    2  A    between atoms: O_2  and  C_3
REMARK    3  A    between atoms: C_5  and  C_13
REMARK    4  A    between atoms: C_7  and  O_11
REMARK    5  A    between atoms: C_8  and  O_9
REMARK    6  A    between atoms: O_9  and  C_10
REMARK    7  A    between atoms: O_11  and  C_12
REMARK    8  A    between atoms: N_17  and  C_21
REMARK    9  A    between atoms: C_21  and  C_22
REMARK   10  A    between atoms: C_22  and  N_23
REMARK                            x       y       z     vdW  Elec       q    Type
REMARK                         _______ _______ _______ _____ _____    ______ ____
ROOT
ATOM      1  C   UNL     1      -0.013   1.076   0.008  0.00  0.00    +0.000 C 
ATOM      2  C   UNL     1      -1.034   1.968   0.073  0.00  0.00    +0.000 C 
ATOM      3  C   UNL     1      -2.486   1.728   0.183  0.00  0.00    +0.000 C 
ATOM      4  O   UNL     1      -2.947   0.603   0.231  0.00  0.00    +0.000 OA
ATOM      5  N   UNL     1      -3.262   2.799   0.228  0.00  0.00    +0.000 N 
ATOM      6  C   UNL     1      -2.747   4.044   0.174  0.00  0.00    +0.000 C 
ATOM      7  O   UNL     1      -3.337   5.107   0.205  0.00  0.00    +0.000 OA
ATOM      8  S   UNL     1      -0.989   3.755   0.055  0.00  0.00    +0.000 S 
ENDROOT
BRANCH   1  11
ATOM      9  C   UNL     1       3.708   1.096  -0.471  0.00  0.00    +0.000 A 
ATOM     10  C   UNL     1       2.430   0.657  -0.184  0.00  0.00    +0.000 A 
ATOM     11  C   UNL     1       1.348   1.538  -0.296  0.00  0.00    +0.000 A 
ATOM     12  C   UNL     1       1.565   2.860  -0.704  0.00  0.00    +0.000 A 
ATOM     13  C   UNL     1       2.847   3.292  -0.983  0.00  0.00    +0.000 A 
ATOM     14  C   UNL     1       3.921   2.413  -0.871  0.00  0.00    +0.000 A 
BRANCH  13  15
ATOM     15  O   UNL     1       3.060   4.578  -1.374  0.00  0.00    +0.000 OA
ATOM     16  C   UNL     1       1.914   5.426  -1.468  0.00  0.00    +0.000 C 
ENDBRANCH  13  15
BRANCH  14  17
ATOM     17  O   UNL     1       5.180   2.841  -1.152  0.00  0.00    +0.000 OA
ATOM     18  C   UNL     1       5.627   2.701  -2.502  0.00  0.00    +0.000 C 
ENDBRANCH  14  17
BRANCH   9  20
ATOM     19  C   UNL     1       4.470  -1.096   0.051  0.00  0.00    +0.000 C 
ATOM     20  O   UNL     1       4.760   0.240  -0.364  0.00  0.00    +0.000 OA
ENDBRANCH   9  20
ENDBRANCH   1  11
BRANCH   5  21
ATOM     21  C   UNL     1      -4.713   2.628   0.338  0.00  0.00    +0.000 C 
BRANCH  21  22
ATOM     22  C   UNL     1      -5.111   2.586   1.814  0.00  0.00    +0.000 C 
BRANCH  22  23
ATOM     23  N   UNL     1      -6.568   2.392   1.913  0.00  0.00    +0.000 N 
ATOM     24  H   UNL     1      -6.832   1.504   1.462  0.00  0.00    +0.000 HD
ATOM     25  H   UNL     1      -7.055   3.172   1.449  0.00  0.00    +0.000 HD
ATOM     26  H   UNL     1      -6.841   2.364   2.906  0.00  0.00    +0.000 HD
ENDBRANCH  22  23
ENDBRANCH  21  22
ENDBRANCH   5  21
TORSDOF 7
ENDMDL
MODEL      853
REMARK  Name = ZINC13151365
REMARK  12 active torsions:
REMARK  status: ('A' for Active; 'I' for Inactive)
REMARK    1  A    between atoms: C_1  and  C_2
REMARK    2  A    between atoms: C_5  and  C_8
REMARK    3  A    between atoms: C_11  and  C_13
REMARK    4  A    between atoms: C_13  and  C_14
REMARK    5  A    between atoms: C_13  and  O_22
REMARK    6  A    between atoms: C_14  and  C_15
REMARK    7  A    between atoms: C_14  and  O_21
REMARK    8  A    between atoms: C_15  and  C_16
REMARK    9  A    between atoms: C_15  and  O_20
REMARK   10  A    between atoms: C_16  and  C_17
REMARK   11  A    between atoms: C_16  and  O_19
REMARK   12  A    between atoms: C_17  and  O_18
REMARK                            x       y       z     vdW  Elec       q    Type
REMARK                         _______ _______ _______ _____ _____    ______ ____
ROOT
ATOM      1  C   UNL     1       1.286   1.562  -0.002  0.00  0.00    +0.000 C 
ENDROOT
BRANCH   1   5
ATOM      2  C   UNL     1       1.169  -0.829  -2.957  0.00  0.00    +0.000 C 
ATOM      3  N   UNL     1       0.900   0.405  -3.262  0.00  0.00    +0.000 NA
ATOM      4  N   UNL     1       1.286   1.475  -2.486  0.00  0.00    +0.000 N 
ATOM      5  C   UNL     1       2.040   1.127  -1.261  0.00  0.00    +0.000 C 
ATOM      6  S   UNL     1       2.073  -0.706  -1.422  0.00  0.00    +0.000 S 
ATOM      7  H   UNL     1       1.066   2.449  -2.741  0.00  0.00    +0.000 HD
BRANCH   2  12
ATOM      8  C   UNL     1      -0.232  -5.588  -5.874  0.00  0.00    +0.000 C 
ATOM      9  C   UNL     1       0.135  -4.342  -5.110  0.00  0.00    +0.000 A 
ATOM     10  C   UNL     1      -0.241  -3.102  -5.594  0.00  0.00    +0.000 A 
ATOM     11  C   UNL     1       0.092  -1.957  -4.900  0.00  0.00    +0.000 A 
ATOM     12  C   UNL     1       0.808  -2.052  -3.706  0.00  0.00    +0.000 A 
ATOM     13  C   UNL     1       1.189  -3.306  -3.225  0.00  0.00    +0.000 A 
ATOM     14  C   UNL     1       0.846  -4.443  -3.927  0.00  0.00    +0.000 A 
ENDBRANCH   2  12
ENDBRANCH   1   5
BRANCH   1  15
ATOM     15  O   UNL     1      -0.011   0.963   0.007  0.00  0.00    +0.000 OA
ATOM     16  H   UNL     1       0.080  -0.023   0.001  0.00  0.00    +0.000 HD
ENDBRANCH   1  15
BRANCH   1  17
ATOM     17  C   UNL     1       2.064   1.114   1.238  0.00  0.00    +0.000 C 
BRANCH  17  18
ATOM     18  O   UNL     1       3.361   1.713   1.228  0.00  0.00    +0.000 OA
ATOM     19  H   UNL     1       3.271   2.699   1.235  0.00  0.00    +0.000 HD
ENDBRANCH  17  18
BRANCH  17  20
ATOM     20  C   UNL     1       1.310   1.548   2.497  0.00  0.00    +0.000 C 
BRANCH  20  21
ATOM     21  O   UNL     1       0.013   0.949   2.506  0.00  0.00    +0.000 OA
ATOM     22  H   UNL     1       0.103  -0.036   2.500  0.00  0.00    +0.000 HD
ENDBRANCH  20  21
BRANCH  20  23
ATOM     23  C   UNL     1       2.087   1.101   3.736  0.00  0.00    +0.000 C 
BRANCH  23  24
ATOM     24  O   UNL     1       3.385   1.700   3.727  0.00  0.00    +0.000 OA
ATOM     25  H   UNL     1       3.294   2.685   3.733  0.00  0.00    +0.000 HD
ENDBRANCH  23  24
BRANCH  23  26
ATOM     26  C   UNL     1       1.334   1.535   4.995  0.00  0.00    +0.000 C 
BRANCH  26  27
ATOM     27  O   UNL     1       1.998   1.017   6.150  0.00  0.00    +0.000 OA
ATOM     28  H   UNL     1       2.924   1.366   6.183  0.00  0.00    +0.000 HD
ENDBRANCH  26  27
ENDBRANCH  23  26
ENDBRANCH  20  23
ENDBRANCH  17  20
ENDBRANCH   1  17
TORSDOF 11
ENDMDL
MODEL      854
REMARK  Name = ZINC03171434
REMARK  7 active torsions:
REMARK  status: ('A' for Active; 'I' for Inactive)
REMARK    1  A    between atoms: C_4  and  S_7
REMARK    2  A    between atoms: S_7  and  N_10
REMARK    3  A    between atoms: N_10  and  N_11
REMARK    4  A    between atoms: C_12  and  C_14
REMARK    5  A    between atoms: N_18  and  C_20
REMARK    6  A    between atoms: C_20  and  C_21
REMARK    7  A    between atoms: C_21  and  O_22
REMARK                            x       y       z     vdW  Elec       q    Type
REMARK                         _______ _______ _______ _____ _____    ______ ____
ROOT
ATOM      1  N   UNL     1      -4.035   0.818   4.588  0.00  0.00    +0.000 N 
ATOM      2  C   UNL     1      -3.391   0.402   3.480  0.00  0.00    +0.000 C 
ATOM      3  O   UNL     1      -3.689  -0.659   2.967  0.00  0.00    +0.000 OA
ATOM      4  H   UNL     1      -3.783   1.717   5.023  0.00  0.00    +0.000 HD
ENDROOT
BRANCH   2   5
ATOM      5  C   UNL     1      -2.324   1.236   2.888  0.00  0.00    +0.000 A 
ATOM      6  C   UNL     1      -1.971   2.459   3.470  0.00  0.00    +0.000 A 
ATOM      7  C   UNL     1      -0.965   3.201   2.877  0.00  0.00    +0.000 A 
ATOM      8  C   UNL     1      -0.342   2.713   1.742  0.00  0.00    +0.000 A 
ATOM      9  N   UNL     1      -0.698   1.558   1.213  0.00  0.00    +0.000 N 
ATOM     10  C   UNL     1      -1.650   0.816   1.741  0.00  0.00    +0.000 A 
BRANCH   9  11
ATOM     11  C   UNL     1      -0.013   1.086   0.008  0.00  0.00    +0.000 C 
BRANCH  11  12
ATOM     12  C   UNL     1      -0.753   1.593  -1.232  0.00  0.00    +0.000 C 
BRANCH  12  13
ATOM     13  O   UNL     1      -0.084   1.132  -2.407  0.00  0.00    +0.000 OA
ATOM     14  H   UNL     1      -0.070   0.142  -2.414  0.00  0.00    +0.000 HD
ENDBRANCH  12  13
ENDBRANCH  11  12
ENDBRANCH   9  11
ENDBRANCH   2   5
BRANCH   1  15
ATOM     15  N   UNL     1      -5.047   0.028   5.149  0.00  0.00    +0.000 NA
BRANCH  15  16
ATOM     16  S   UNL     1      -4.958  -0.424   6.740  0.00  0.00    +0.000 S 
ATOM     17  O   UNL     1      -6.180  -1.083   7.043  0.00  0.00    +0.000 OA
ATOM     18  O   UNL     1      -3.693  -1.046   6.916  0.00  0.00    +0.000 OA
BRANCH  16  22
ATOM     19  C   UNL     1      -4.887   3.370   9.208  0.00  0.00    +0.000 A 
ATOM     20  C   UNL     1      -6.093   2.773   8.893  0.00  0.00    +0.000 A 
ATOM     21  C   UNL     1      -6.115   1.615   8.139  0.00  0.00    +0.000 A 
ATOM     22  C   UNL     1      -4.931   1.053   7.701  0.00  0.00    +0.000 A 
ATOM     23  C   UNL     1      -3.724   1.647   8.021  0.00  0.00    +0.000 A 
ATOM     24  C   UNL     1      -3.703   2.808   8.770  0.00  0.00    +0.000 A 
ENDBRANCH  16  22
ENDBRANCH  15  16
ENDBRANCH   1  15
TORSDOF 7
ENDMDL
MODEL      855
REMARK  Name = ZINC13655791
REMARK  7 active torsions:
REMARK  status: ('A' for Active; 'I' for Inactive)
REMARK    1  A    between atoms: C_1  and  C_2
REMARK    2  A    between atoms: C_2  and  N_23
REMARK    3  A    between atoms: C_6  and  C_7
REMARK    4  A    between atoms: C_7  and  N_8
REMARK    5  A    between atoms: C_9  and  C_11
REMARK    6  A    between atoms: C_11  and  N_12
REMARK    7  A    between atoms: N_12  and  C_13
REMARK                            x       y       z     vdW  Elec       q    Type
REMARK                         _______ _______ _______ _____ _____    ______ ____
ROOT
ATOM      1  C   UNL     1      -3.440   3.046  -0.459  0.00  0.00    +0.000 C 
ENDROOT
BRANCH   1   3
ATOM      2  N   UNL     1      -5.893   3.103  -0.145  0.00  0.00    +0.000 N 
ATOM      3  C   UNL     1      -4.762   2.372  -0.194  0.00  0.00    +0.000 C 
ATOM      4  O   UNL     1      -4.808   1.172  -0.025  0.00  0.00    +0.000 OA
ATOM      5  H   UNL     1      -5.854   4.123  -0.289  0.00  0.00    +0.000 HD
BRANCH   2   6
ATOM      6  C   UNL     1      -7.178   2.449   0.112  0.00  0.00    +0.000 C 
BRANCH   6  10
ATOM      7  C   UNL     1      -9.235   4.732   2.092  0.00  0.00    +0.000 C 
ATOM      8  C   UNL     1     -10.366   4.006   1.334  0.00  0.00    +0.000 C 
ATOM      9  C   UNL     1      -9.623   2.844   0.622  0.00  0.00    +0.000 C 
ATOM     10  C   UNL     1      -8.269   3.510   0.270  0.00  0.00    +0.000 C 
ATOM     11  N   UNL     1      -7.971   4.375   1.429  0.00  0.00    +0.000 N 
ATOM     12  H   UNL     1      -7.362   3.871   2.090  0.00  0.00    +0.000 HD
BRANCH  11  14
ATOM     13  C   UNL     1      -7.080   6.544   2.174  0.00  0.00    +0.000 C 
ATOM     14  C   UNL     1      -7.261   5.602   0.982  0.00  0.00    +0.000 C 
ENDBRANCH  11  14
ENDBRANCH   6  10
ENDBRANCH   2   6
ENDBRANCH   1   3
BRANCH   1  15
ATOM     15  N   UNL     1      -2.373   2.043  -0.463  0.00  0.00    +0.000 N 
ATOM     16  H   UNL     1      -2.598   1.051  -0.298  0.00  0.00    +0.000 HD
BRANCH  15  17
ATOM     17  C   UNL     1      -1.063   2.427  -0.687  0.00  0.00    +0.000 A 
ATOM     18  C   UNL     1      -0.026   1.478  -0.694  0.00  0.00    +0.000 A 
ATOM     19  C   UNL     1       1.285   1.929  -0.920  0.00  0.00    +0.000 A 
ATOM     20  N   UNL     1       2.083   0.813  -0.869  0.00  0.00    +0.000 N 
ATOM     21  C   UNL     1       1.274  -0.256  -0.622  0.00  0.00    +0.000 A 
ATOM     22  N   UNL     1       0.037   0.136  -0.519  0.00  0.00    +0.000 NA
ATOM     23  N   UNL     1       1.497   3.225  -1.123  0.00  0.00    +0.000 NA
ATOM     24  C   UNL     1       0.493   4.079  -1.113  0.00  0.00    +0.000 A 
ATOM     25  N   UNL     1      -0.756   3.702  -0.904  0.00  0.00    +0.000 NA
ATOM     26 CL   UNL     1       0.825   5.761  -1.383  0.00  0.00    +0.000 Cl
ATOM     27  H   UNL     1       3.104   0.789  -0.995  0.00  0.00    +0.000 HD
ENDBRANCH  15  17
ENDBRANCH   1  15
TORSDOF 6
ENDMDL
MODEL      856
REMARK  Name = ZINC01535903
REMARK  8 active torsions:
REMARK  status: ('A' for Active; 'I' for Inactive)
REMARK    1  A    between atoms: C_3  and  N_20
REMARK    2  A    between atoms: C_6  and  N_7
REMARK    3  A    between atoms: N_7  and  C_8
REMARK    4  A    between atoms: C_8  and  C_9
REMARK    5  A    between atoms: C_9  and  N_23
REMARK    6  A    between atoms: N_20  and  C_21
REMARK    7  A    between atoms: C_21  and  C_22
REMARK    8  A    between atoms: C_22  and  N_24
REMARK                            x       y       z     vdW  Elec       q    Type
REMARK                         _______ _______ _______ _____ _____    ______ ____
ROOT
ATOM      1  C   UNL     1      -2.054   3.396   3.309  0.00  0.00    +0.000 A 
ATOM      2  C   UNL     1      -2.647   4.053   4.346  0.00  0.00    +0.000 A 
ATOM      3  C   UNL     1      -2.568   5.445   4.448  0.00  0.00    +0.000 A 
ATOM      4  C   UNL     1      -1.874   6.176   3.477  0.00  0.00    +0.000 A 
ATOM      5  C   UNL     1      -1.255   5.496   2.407  0.00  0.00    +0.000 A 
ATOM      6  C   UNL     1      -1.354   4.102   2.325  0.00  0.00    +0.000 A 
ATOM      7  C   UNL     1      -0.527   6.251   1.375  0.00  0.00    +0.000 C 
ATOM      8  O   UNL     1       0.003   5.667   0.450  0.00  0.00    +0.000 OA
ATOM      9  C   UNL     1      -0.437   7.723   1.473  0.00  0.00    +0.000 A 
ATOM     10  C   UNL     1       0.249   8.470   0.520  0.00  0.00    +0.000 A 
ATOM     11  C   UNL     1       0.300   9.848   0.665  0.00  0.00    +0.000 A 
ATOM     12  N   UNL     1      -0.285  10.450   1.681  0.00  0.00    +0.000 NA
ATOM     13  C   UNL     1      -0.946   9.787   2.609  0.00  0.00    +0.000 A 
ATOM     14  C   UNL     1      -1.049   8.400   2.544  0.00  0.00    +0.000 A 
ATOM     15  C   UNL     1      -1.784   7.641   3.574  0.00  0.00    +0.000 C 
ATOM     16  O   UNL     1      -2.314   8.225   4.500  0.00  0.00    +0.000 OA
ENDROOT
BRANCH   3  17
ATOM     17  N   UNL     1      -3.175   6.100   5.508  0.00  0.00    +0.000 N 
ATOM     18  H   UNL     1      -3.200   7.130   5.531  0.00  0.00    +0.000 HD
BRANCH  17  19
ATOM     19  C   UNL     1      -3.782   5.328   6.595  0.00  0.00    +0.000 C 
BRANCH  19  20
ATOM     20  C   UNL     1      -4.378   6.285   7.629  0.00  0.00    +0.000 C 
BRANCH  20  21
ATOM     21  N   UNL     1      -4.966   5.499   8.728  0.00  0.00    +0.000 N 
ATOM     22  H   UNL     1      -4.237   4.925   9.174  0.00  0.00    +0.000 HD
ATOM     23  H   UNL     1      -5.709   4.888   8.360  0.00  0.00    +0.000 HD
ATOM     24  H   UNL     1      -5.369   6.140   9.427  0.00  0.00    +0.000 HD
ENDBRANCH  20  21
ENDBRANCH  19  20
ENDBRANCH  17  19
ENDBRANCH   3  17
BRANCH   6  25
ATOM     25  N   UNL     1      -0.755   3.423   1.276  0.00  0.00    +0.000 N 
ATOM     26  H   UNL     1      -0.323   3.948   0.503  0.00  0.00    +0.000 HD
BRANCH  25  27
ATOM     27  C   UNL     1      -0.736   1.958   1.268  0.00  0.00    +0.000 C 
BRANCH  27  28
ATOM     28  C   UNL     1      -0.020   1.465   0.009  0.00  0.00    +0.000 C 
BRANCH  28  29
ATOM     29  N   UNL     1      -0.026  -0.009  -0.001  0.00  0.00    +0.000 N 
ATOM     30  H   UNL     1      -0.997  -0.353  -0.002  0.00  0.00    +0.000 HD
ATOM     31  H   UNL     1       0.464  -0.364   0.833  0.00  0.00    +0.000 HD
ATOM     32  H   UNL     1       0.455  -0.345  -0.847  0.00  0.00    +0.000 HD
ENDBRANCH  28  29
ENDBRANCH  27  28
ENDBRANCH  25  27
ENDBRANCH   6  25
TORSDOF 8
ENDMDL
MODEL      857
REMARK  Name = ZINC24031219
REMARK  10 active torsions:
REMARK  status: ('A' for Active; 'I' for Inactive)
REMARK    1  A    between atoms: C_1  and  C_2
REMARK    2  A    between atoms: C_2  and  O_3
REMARK    3  A    between atoms: O_3  and  C_4
REMARK    4  A    between atoms: C_4  and  C_6
REMARK    5  A    between atoms: C_7  and  C_14
REMARK    6  A    between atoms: C_8  and  C_12
REMARK    7  A    between atoms: C_9  and  N_11
REMARK    8  A    between atoms: C_14  and  S_15
REMARK    9  A    between atoms: S_15  and  C_16
REMARK   10  A    between atoms: N_20  and  N_21
REMARK                            x       y       z     vdW  Elec       q    Type
REMARK                         _______ _______ _______ _____ _____    ______ ____
ROOT
ATOM      1  C   UNL     1      -6.186   3.105   1.303  0.00  0.00    +0.000 A 
ATOM      2  C   UNL     1      -5.870   2.044   0.478  0.00  0.00    +0.000 A 
ATOM      3  C   UNL     1      -6.641   0.899   0.588  0.00  0.00    +0.000 A 
ATOM      4  C   UNL     1      -7.675   0.895   1.530  0.00  0.00    +0.000 A 
ATOM      5  S   UNL     1      -7.569   2.475   2.236  0.00  0.00    +0.000 S 
ENDROOT
BRANCH   4   6
ATOM      6  N   UNL     1      -8.564  -0.115   1.823  0.00  0.00    +0.000 N 
ATOM      7  H   UNL     1      -8.428  -0.966   1.260  0.00  0.00    +0.000 HD
ATOM      8  H   UNL     1      -9.306  -0.049   2.534  0.00  0.00    +0.000 HD
ENDBRANCH   4   6
BRANCH   1   9
ATOM      9  C   UNL     1      -5.567   4.378   1.387  0.00  0.00    +0.000 C 
ATOM     10  O   UNL     1      -4.623   4.644   0.667  0.00  0.00    +0.000 OA
BRANCH   9  11
ATOM     11  O   UNL     1      -6.024   5.294   2.267  0.00  0.00    +0.000 OA
BRANCH  11  13
ATOM     12  C   UNL     1      -6.006   7.455   3.347  0.00  0.00    +0.000 C 
ATOM     13  C   UNL     1      -5.353   6.555   2.297  0.00  0.00    +0.000 C 
ENDBRANCH  11  13
ENDBRANCH   9  11
ENDBRANCH   1   9
BRANCH   3  14
ATOM     14  C   UNL     1      -6.386  -0.245  -0.234  0.00  0.00    +0.000 C 
ATOM     15  N   UNL     1      -6.183  -1.154  -0.885  0.00  0.00    +0.000 NA
ENDBRANCH   3  14
BRANCH   2  16
ATOM     16  C   UNL     1      -4.733   2.131  -0.508  0.00  0.00    +0.000 C 
BRANCH  16  17
ATOM     17  S   UNL     1      -3.206   1.565   0.281  0.00  0.00    +0.000 S 
BRANCH  17  18
ATOM     18  C   UNL     1      -2.077   1.768  -1.057  0.00  0.00    +0.000 A 
ATOM     19  N   UNL     1      -2.363   2.213  -2.259  0.00  0.00    +0.000 NA
ATOM     20  N   UNL     1      -1.301   2.230  -2.982  0.00  0.00    +0.000 NA
ATOM     21  C   UNL     1      -0.282   1.805  -2.290  0.00  0.00    +0.000 A 
ATOM     22  N   UNL     1      -0.741   1.490  -1.041  0.00  0.00    +0.000 N 
BRANCH  22  23
ATOM     23  N   UNL     1      -0.012   1.005   0.008  0.00  0.00    +0.000 N 
ATOM     24  H   UNL     1      -0.550   0.837   0.870  0.00  0.00    +0.000 HD
ATOM     25  H   UNL     1       1.000   0.814  -0.040  0.00  0.00    +0.000 HD
ENDBRANCH  22  23
ENDBRANCH  17  18
ENDBRANCH  16  17
ENDBRANCH   2  16
TORSDOF 9
ENDMDL
MODEL      858
REMARK  Name = ZINC10254186
REMARK  8 active torsions:
REMARK  status: ('A' for Active; 'I' for Inactive)
REMARK    1  A    between atoms: C_1  and  N_23
REMARK    2  A    between atoms: C_2  and  N_23
REMARK    3  A    between atoms: C_3  and  C_4
REMARK    4  A    between atoms: C_3  and  N_23
REMARK    5  A    between atoms: C_4  and  N_5
REMARK    6  A    between atoms: C_6  and  C_8
REMARK    7  A    between atoms: N_10  and  C_11
REMARK    8  A    between atoms: C_19  and  C_20
REMARK                            x       y       z     vdW  Elec       q    Type
REMARK                         _______ _______ _______ _____ _____    ______ ____
ROOT
ATOM      1  C   UNL     1       1.313   5.788  -0.414  0.00  0.00    +0.000 C 
ATOM      2  O   UNL     1       0.141   5.968  -0.673  0.00  0.00    +0.000 OA
ATOM      3  N   UNL     1       1.736   4.573  -0.013  0.00  0.00    +0.000 N 
ATOM      4  H   UNL     1       2.719   4.434   0.262  0.00  0.00    +0.000 HD
ENDROOT
BRANCH   3   5
ATOM      5  C   UNL     1       0.847   3.507   0.028  0.00  0.00    +0.000 A 
ATOM      6  C   UNL     1      -0.369   3.338  -0.778  0.00  0.00    +0.000 A 
ATOM      7  C   UNL     1      -0.995   4.103  -1.763  0.00  0.00    +0.000 A 
ATOM      8  C   UNL     1      -2.152   3.654  -2.336  0.00  0.00    +0.000 A 
ATOM      9  C   UNL     1      -2.706   2.443  -1.944  0.00  0.00    +0.000 A 
ATOM     10  C   UNL     1      -2.103   1.674  -0.973  0.00  0.00    +0.000 A 
ATOM     11  C   UNL     1      -0.925   2.111  -0.376  0.00  0.00    +0.000 A 
ATOM     12  O   UNL     1      -0.131   1.591   0.580  0.00  0.00    +0.000 OA
ATOM     13  C   UNL     1       0.924   2.400   0.827  0.00  0.00    +0.000 A 
BRANCH  13  14
ATOM     14  C   UNL     1       1.980   2.135   1.803  0.00  0.00    +0.000 C 
ATOM     15  O   UNL     1       2.826   2.981   2.030  0.00  0.00    +0.000 OA
ATOM     16  N   UNL     1       2.017   0.954   2.452  0.00  0.00    +0.000 N 
ATOM     17  H   UNL     1       1.302   0.239   2.261  0.00  0.00    +0.000 HD
ATOM     18  H   UNL     1       2.761   0.768   3.139  0.00  0.00    +0.000 HD
ENDBRANCH  13  14
ENDBRANCH   3   5
BRANCH   1  20
ATOM     19  N   UNL     1       1.863   8.130  -0.938  0.00  0.00    +0.000 N 
ATOM     20  C   UNL     1       2.287   6.914  -0.537  0.00  0.00    +0.000 C 
ATOM     21  O   UNL     1       3.458   6.735  -0.278  0.00  0.00    +0.000 OA
ATOM     22  H   UNL     1       0.869   8.282  -1.158  0.00  0.00    +0.000 HD
BRANCH  19  23
ATOM     23  C   UNL     1       2.818   9.234  -1.059  0.00  0.00    +0.000 C 
BRANCH  23  24
ATOM     24  C   UNL     1       2.085  10.493  -1.527  0.00  0.00    +0.000 C 
BRANCH  24  27
ATOM     25  C   UNL     1       2.429  12.756  -2.318  0.00  0.00    +0.000 C 
ATOM     26  C   UNL     1       3.582  11.977  -0.335  0.00  0.00    +0.000 C 
ATOM     27  N   UNL     1       3.065  11.591  -1.665  0.00  0.00    +0.000 N 
ATOM     28  H   UNL     1       3.850  11.268  -2.248  0.00  0.00    +0.000 HD
ENDBRANCH  24  27
ENDBRANCH  23  24
ENDBRANCH  19  23
ENDBRANCH   1  20
TORSDOF 6
ENDMDL
MODEL      859
REMARK  Name = ZINC05973824
REMARK  7 active torsions:
REMARK  status: ('A' for Active; 'I' for Inactive)
REMARK    1  A    between atoms: N_5  and  C_6
REMARK    2  A    between atoms: C_6  and  O_7
REMARK    3  A    between atoms: O_7  and  C_8
REMARK    4  A    between atoms: C_8  and  C_9
REMARK    5  A    between atoms: C_8  and  C_11
REMARK    6  A    between atoms: C_9  and  O_10
REMARK    7  A    between atoms: C_11  and  O_12
REMARK                            x       y       z     vdW  Elec       q    Type
REMARK                         _______ _______ _______ _____ _____    ______ ____
ROOT
ATOM      1  C   UNL     1       0.058  -2.747  -0.003  0.00  0.00    +0.000 A 
ATOM      2  C   UNL     1       0.312  -4.066   0.123  0.00  0.00    +0.000 A 
ATOM      3  C   UNL     1       1.536  -4.202   0.813  0.00  0.00    +0.000 A 
ATOM      4  C   UNL     1       1.994  -2.908   1.083  0.00  0.00    +0.000 A 
ATOM      5  N   UNL     1       1.066  -2.035   0.576  0.00  0.00    +0.000 N 
ATOM      6  C   UNL     1       3.218  -2.750   1.768  0.00  0.00    +0.000 A 
ATOM      7  O   UNL     1       3.639  -1.632   2.018  0.00  0.00    +0.000 OA
ATOM      8  N   UNL     1       3.920  -3.836   2.145  0.00  0.00    +0.000 N 
ATOM      9  N   UNL     1       3.471  -5.131   1.876  0.00  0.00    +0.000 NA
ATOM     10  C   UNL     1       2.340  -5.344   1.253  0.00  0.00    +0.000 A 
ATOM     11  N   UNL     1       1.914  -6.644   0.995  0.00  0.00    +0.000 N 
ATOM     12 BR   UNL     1      -0.775  -5.478  -0.509  0.00  0.00    +0.000 Br
ATOM     13  H   UNL     1       4.812  -3.708   2.645  0.00  0.00    +0.000 HD
ATOM     14  H   UNL     1       1.029  -6.802   0.492  0.00  0.00    +0.000 HD
ATOM     15  H   UNL     1       2.481  -7.446   1.305  0.00  0.00    +0.000 HD
ENDROOT
BRANCH   5  16
ATOM     16  C   UNL     1       1.147  -0.573   0.641  0.00  0.00    +0.000 C 
BRANCH  16  17
ATOM     17  O   UNL     1       0.002  -0.004   0.002  0.00  0.00    +0.000 OA
BRANCH  17  18
ATOM     18  C   UNL     1      -0.017   1.425   0.010  0.00  0.00    +0.000 C 
BRANCH  18  19
ATOM     19  C   UNL     1      -0.733   1.918   1.269  0.00  0.00    +0.000 C 
BRANCH  19  20
ATOM     20  O   UNL     1      -2.106   1.522   1.222  0.00  0.00    +0.000 OA
ATOM     21  H   UNL     1      -2.163   0.535   1.176  0.00  0.00    +0.000 HD
ENDBRANCH  19  20
ENDBRANCH  18  19
BRANCH  18  22
ATOM     22  C   UNL     1      -0.757   1.932  -1.230  0.00  0.00    +0.000 C 
BRANCH  22  23
ATOM     23  O   UNL     1      -2.128   1.535  -1.161  0.00  0.00    +0.000 OA
ATOM     24  H   UNL     1      -2.544   1.919  -0.349  0.00  0.00    +0.000 HD
ENDBRANCH  22  23
ENDBRANCH  18  22
ENDBRANCH  17  18
ENDBRANCH  16  17
ENDBRANCH   5  16
TORSDOF 7
ENDMDL
MODEL      860
REMARK  Name = ZINC15987147
REMARK  10 active torsions:
REMARK  status: ('A' for Active; 'I' for Inactive)
REMARK    1  A    between atoms: C_1  and  C_2
REMARK    2  A    between atoms: C_2  and  C_3
REMARK    3  A    between atoms: C_3  and  C_4
REMARK    4  A    between atoms: C_3  and  C_5
REMARK    5  A    between atoms: C_5  and  C_6
REMARK    6  A    between atoms: C_5  and  N_22
REMARK    7  A    between atoms: C_9  and  S_11
REMARK    8  A    between atoms: S_11  and  C_12
REMARK    9  A    between atoms: C_12  and  C_13
REMARK   10  A    between atoms: C_14  and  C_21
REMARK                            x       y       z     vdW  Elec       q    Type
REMARK                         _______ _______ _______ _____ _____    ______ ____
ROOT
ATOM      1  C   UNL     1      -3.640  -1.330   0.030  0.00  0.00    +0.000 A 
ATOM      2  N   UNL     1      -3.828  -0.043   0.038  0.00  0.00    +0.000 NA
ATOM      3  N   UNL     1      -2.690   0.558   0.036  0.00  0.00    +0.000 NA
ATOM      4  C   UNL     1      -1.729  -0.334   0.017  0.00  0.00    +0.000 A 
ATOM      5  O   UNL     1      -2.311  -1.548   0.016  0.00  0.00    +0.000 OA
ENDROOT
BRANCH   1   6
ATOM      6  C   UNL     1      -4.715  -2.386   0.034  0.00  0.00    +0.000 C 
BRANCH   6   7
ATOM      7  N   UNL     1      -5.746  -2.024  -0.955  0.00  0.00    +0.000 N 
ATOM      8  H   UNL     1      -6.158  -1.116  -0.695  0.00  0.00    +0.000 HD
ATOM      9  H   UNL     1      -6.483  -2.744  -0.952  0.00  0.00    +0.000 HD
ATOM     10  H   UNL     1      -5.327  -1.959  -1.893  0.00  0.00    +0.000 HD
ENDBRANCH   6   7
BRANCH   6  11
ATOM     11  C   UNL     1      -5.328  -2.485   1.433  0.00  0.00    +0.000 C 
ATOM     12  C   UNL     1      -6.045  -1.176   1.769  0.00  0.00    +0.000 C 
BRANCH  11  14
ATOM     13  C   UNL     1      -6.849  -3.819   2.898  0.00  0.00    +0.000 C 
ATOM     14  C   UNL     1      -6.330  -3.640   1.470  0.00  0.00    +0.000 C 
ENDBRANCH  11  14
ENDBRANCH   6  11
ENDBRANCH   1   6
BRANCH   4  15
ATOM     15  S   UNL     1       0.002  -0.004   0.002  0.00  0.00    +0.000 S 
BRANCH  15  16
ATOM     16  C   UNL     1      -0.022   1.806   0.012  0.00  0.00    +0.000 C 
BRANCH  16  17
ATOM     17  C   UNL     1       1.391   2.327   0.001  0.00  0.00    +0.000 A 
ATOM     18  C   UNL     1       1.918   2.853  -1.125  0.00  0.00    +0.000 A 
ATOM     19  N   UNL     1       3.203   3.322  -1.117  0.00  0.00    +0.000 N 
ATOM     20  C   UNL     1       3.947   3.266   0.002  0.00  0.00    +0.000 A 
ATOM     21  O   UNL     1       5.087   3.689  -0.013  0.00  0.00    +0.000 OA
ATOM     22  N   UNL     1       3.447   2.747   1.139  0.00  0.00    +0.000 N 
ATOM     23  C   UNL     1       2.183   2.278   1.174  0.00  0.00    +0.000 A 
ATOM     24  O   UNL     1       1.728   1.813   2.204  0.00  0.00    +0.000 OA
ATOM     25  C   UNL     1       1.094   2.922  -2.385  0.00  0.00    +0.000 C 
ATOM     26  H   UNL     1       3.606   3.723  -1.977  0.00  0.00    +0.000 HD
ATOM     27  H   UNL     1       4.031   2.709   1.986  0.00  0.00    +0.000 HD
ENDBRANCH  16  17
ENDBRANCH  15  16
ENDBRANCH   4  15
TORSDOF 7
ENDMDL
MODEL      861
REMARK  Name = ZINC05845153
REMARK  8 active torsions:
REMARK  status: ('A' for Active; 'I' for Inactive)
REMARK    1  A    between atoms: C_1  and  N_2
REMARK    2  A    between atoms: N_2  and  C_3
REMARK    3  A    between atoms: N_2  and  C_4
REMARK    4  A    between atoms: N_2  and  O_23
REMARK    5  A    between atoms: C_4  and  C_5
REMARK    6  A    between atoms: C_5  and  N_6
REMARK    7  A    between atoms: N_6  and  C_7
REMARK    8  A    between atoms: C_16  and  N_20
REMARK                            x       y       z     vdW  Elec       q    Type
REMARK                         _______ _______ _______ _____ _____    ______ ____
ROOT
ATOM      1  C   UNL     1       2.257   3.712  -0.395  0.00  0.00    +0.000 A 
ATOM      2  C   UNL     1       1.192   2.789  -0.405  0.00  0.00    +0.000 A 
ATOM      3  C   UNL     1       1.436   1.405  -0.428  0.00  0.00    +0.000 A 
ATOM      4  C   UNL     1       0.389   0.536  -0.438  0.00  0.00    +0.000 A 
ATOM      5  C   UNL     1      -0.926   1.001  -0.432  0.00  0.00    +0.000 A 
ATOM      6  C   UNL     1      -1.201   2.332  -0.404  0.00  0.00    +0.000 A 
ATOM      7  C   UNL     1      -0.144   3.266  -0.394  0.00  0.00    +0.000 A 
ATOM      8  C   UNL     1       0.573   5.481  -0.363  0.00  0.00    +0.000 A 
ATOM      9  C   UNL     1       1.936   5.083  -0.373  0.00  0.00    +0.000 A 
ATOM     10  C   UNL     1       2.945   6.062  -0.363  0.00  0.00    +0.000 A 
ATOM     11  C   UNL     1       2.606   7.379  -0.342  0.00  0.00    +0.000 A 
ATOM     12  C   UNL     1       1.268   7.774  -0.331  0.00  0.00    +0.000 A 
ATOM     13  C   UNL     1       0.265   6.857  -0.341  0.00  0.00    +0.000 A 
ATOM     14  N   UNL     1      -0.478   4.598  -0.373  0.00  0.00    +0.000 N 
ATOM     15  H   UNL     1      -1.458   4.915  -0.365  0.00  0.00    +0.000 HD
ENDROOT
BRANCH  10  16
ATOM     16  N   UNL     1       4.370   5.661  -0.374  0.00  0.00    +0.000 N 
ATOM     17  O   UNL     1       5.121   6.057   0.499  0.00  0.00    +0.000 OA
ATOM     18  O   UNL     1       4.791   4.934  -1.256  0.00  0.00    +0.000 OA
ENDBRANCH  10  16
BRANCH   1  19
ATOM     19  N   UNL     1       3.568   3.287  -0.405  0.00  0.00    +0.000 N 
ATOM     20  H   UNL     1       4.154   3.224  -1.250  0.00  0.00    +0.000 HD
BRANCH  19  21
ATOM     21  C   UNL     1       4.019   2.937   0.948  0.00  0.00    +0.000 C 
BRANCH  21  22
ATOM     22  C   UNL     1       5.432   2.355   0.881  0.00  0.00    +0.000 C 
BRANCH  22  24
ATOM     23  C   UNL     1       7.281   1.558   2.185  0.00  0.00    +0.000 C 
ATOM     24  N   UNL     1       5.883   2.005   2.234  0.00  0.00    +0.000 N 
ATOM     25  C   UNL     1       5.775   3.182   3.106  0.00  0.00    +0.000 C 
BRANCH  24  26
ATOM     26  O   UNL     1       5.045   0.928   2.764  0.00  0.00    +0.000 OA
ATOM     27  H   UNL     1       5.348   0.692   3.676  0.00  0.00    +0.000 HD
ENDBRANCH  24  26
ENDBRANCH  22  24
ENDBRANCH  21  22
ENDBRANCH  19  21
ENDBRANCH   1  19
TORSDOF 6
ENDMDL
MODEL      862
REMARK  Name = ZINC11635230
REMARK  9 active torsions:
REMARK  status: ('A' for Active; 'I' for Inactive)
REMARK    1  A    between atoms: C_1  and  C_2
REMARK    2  A    between atoms: C_7  and  S_8
REMARK    3  A    between atoms: S_8  and  N_11
REMARK    4  A    between atoms: N_11  and  C_12
REMARK    5  A    between atoms: C_12  and  C_13
REMARK    6  A    between atoms: C_13  and  C_14
REMARK    7  A    between atoms: C_14  and  N_21
REMARK    8  A    between atoms: C_15  and  N_21
REMARK    9  A    between atoms: C_16  and  N_21
REMARK                            x       y       z     vdW  Elec       q    Type
REMARK                         _______ _______ _______ _____ _____    ______ ____
ROOT
ATOM      1  C   UNL     1       0.428   4.118   2.464  0.00  0.00    +0.000 C 
ATOM      2  C   UNL     1      -0.107   3.377   1.266  0.00  0.00    +0.000 A 
ATOM      3  C   UNL     1      -1.419   2.943   1.256  0.00  0.00    +0.000 A 
ATOM      4  C   UNL     1      -1.910   2.256   0.156  0.00  0.00    +0.000 A 
ATOM      5  C   UNL     1      -1.080   2.018  -0.942  0.00  0.00    +0.000 A 
ATOM      6  C   UNL     1       0.234   2.457  -0.922  0.00  0.00    +0.000 A 
ATOM      7  C   UNL     1       0.716   3.135   0.181  0.00  0.00    +0.000 A 
ATOM      8  N   UNL     1      -1.843   1.325  -1.879  0.00  0.00    +0.000 N 
ATOM      9  C   UNL     1      -3.076   1.141  -1.371  0.00  0.00    +0.000 A 
ATOM     10  O   UNL     1      -3.989   0.568  -1.936  0.00  0.00    +0.000 OA
ATOM     11  N   UNL     1      -3.149   1.699  -0.147  0.00  0.00    +0.000 N 
ATOM     12  H   UNL     1      -1.519   1.009  -2.804  0.00  0.00    +0.000 HD
ATOM     13  H   UNL     1      -3.981   1.711   0.460  0.00  0.00    +0.000 HD
ENDROOT
BRANCH   7  14
ATOM     14  S   UNL     1       2.387   3.694   0.206  0.00  0.00    +0.000 S 
ATOM     15  O   UNL     1       2.986   3.238  -0.999  0.00  0.00    +0.000 OA
ATOM     16  O   UNL     1       2.350   5.069   0.565  0.00  0.00    +0.000 OA
BRANCH  14  17
ATOM     17  N   UNL     1       3.150   2.902   1.444  0.00  0.00    +0.000 NA
ATOM     18  H   UNL     1       3.484   3.429   2.264  0.00  0.00    +0.000 HD
BRANCH  17  19
ATOM     19  C   UNL     1       3.351   1.453   1.373  0.00  0.00    +0.000 C 
BRANCH  19  20
ATOM     20  C   UNL     1       4.359   1.024   2.441  0.00  0.00    +0.000 C 
BRANCH  20  21
ATOM     21  C   UNL     1       4.568  -0.489   2.367  0.00  0.00    +0.000 C 
BRANCH  21  24
ATOM     22  C   UNL     1       5.586  -2.364   3.512  0.00  0.00    +0.000 C 
ATOM     23  C   UNL     1       6.868  -0.350   3.110  0.00  0.00    +0.000 C 
ATOM     24  N   UNL     1       5.527  -0.890   3.417  0.00  0.00    +0.000 N 
ATOM     25  H   UNL     1       5.212  -0.509   4.321  0.00  0.00    +0.000 HD
ENDBRANCH  21  24
ENDBRANCH  20  21
ENDBRANCH  19  20
ENDBRANCH  17  19
ENDBRANCH  14  17
ENDBRANCH   7  14
TORSDOF 6
ENDMDL
MODEL      863
REMARK  Name = ZINC11436685
REMARK  8 active torsions:
REMARK  status: ('A' for Active; 'I' for Inactive)
REMARK    1  A    between atoms: C_1  and  O_2
REMARK    2  A    between atoms: O_2  and  C_3
REMARK    3  A    between atoms: C_6  and  O_21
REMARK    4  A    between atoms: C_7  and  C_9
REMARK    5  A    between atoms: C_13  and  C_14
REMARK    6  A    between atoms: C_13  and  N_23
REMARK    7  A    between atoms: C_14  and  C_15
REMARK    8  A    between atoms: O_21  and  C_22
REMARK                            x       y       z     vdW  Elec       q    Type
REMARK                         _______ _______ _______ _____ _____    ______ ____
ROOT
ATOM      1  C   UNL     1      -0.013   1.086   0.008  0.00  0.00    +0.000 C 
ATOM      2  C   UNL     1       1.428   1.630  -0.003  0.00  0.00    +0.000 C 
ATOM      3  C   UNL     1       1.569   2.424   1.316  0.00  0.00    +0.000 C 
ATOM      4  C   UNL     1       0.457   1.816   2.207  0.00  0.00    +0.000 C 
ATOM      5  N   UNL     1      -0.627   1.582   1.240  0.00  0.00    +0.000 N 
ATOM      6  H   UNL     1      -1.146   2.454   1.060  0.00  0.00    +0.000 HD
ENDROOT
BRANCH   1  11
ATOM      7  C   UNL     1      -2.209   3.217  -2.209  0.00  0.00    +0.000 A 
ATOM      8  C   UNL     1      -2.142   2.528  -3.411  0.00  0.00    +0.000 A 
ATOM      9  C   UNL     1      -1.388   1.375  -3.505  0.00  0.00    +0.000 A 
ATOM     10  C   UNL     1      -0.697   0.906  -2.397  0.00  0.00    +0.000 A 
ATOM     11  C   UNL     1      -0.763   1.595  -1.195  0.00  0.00    +0.000 A 
ATOM     12  C   UNL     1      -1.522   2.746  -1.100  0.00  0.00    +0.000 A 
BRANCH  10  13
ATOM     13  O   UNL     1       0.045  -0.230  -2.489  0.00  0.00    +0.000 OA
ATOM     14  C   UNL     1       0.068  -0.888  -3.757  0.00  0.00    +0.000 C 
ENDBRANCH  10  13
BRANCH   7  16
ATOM     15  C   UNL     1      -3.636   4.778  -3.296  0.00  0.00    +0.000 C 
ATOM     16  O   UNL     1      -2.951   4.353  -2.116  0.00  0.00    +0.000 OA
ENDBRANCH   7  16
ENDBRANCH   1  11
BRANCH   5  17
ATOM     17  C   UNL     1      -1.598   0.584   1.779  0.00  0.00    +0.000 C 
BRANCH  17  18
ATOM     18  C   UNL     1      -2.049   1.007   3.179  0.00  0.00    +0.000 C 
BRANCH  18  19
ATOM     19  C   UNL     1      -3.021  -0.009   3.722  0.00  0.00    +0.000 C 
ATOM     20  O   UNL     1      -3.322  -0.976   3.056  0.00  0.00    +0.000 OA
ATOM     21  N   UNL     1      -3.554   0.157   4.949  0.00  0.00    +0.000 N 
ATOM     22  C   UNL     1      -4.422  -0.752   5.434  0.00  0.00    +0.000 C 
ATOM     23  O   UNL     1      -4.725  -1.722   4.766  0.00  0.00    +0.000 OA
ATOM     24  N   UNL     1      -4.955  -0.586   6.661  0.00  0.00    +0.000 N 
ATOM     25  H   UNL     1      -3.297   0.978   5.515  0.00  0.00    +0.000 HD
ATOM     26  H   UNL     1      -4.699   0.235   7.227  0.00  0.00    +0.000 HD
ATOM     27  H   UNL     1      -5.619  -1.280   7.032  0.00  0.00    +0.000 HD
ENDBRANCH  18  19
ENDBRANCH  17  18
ENDBRANCH   5  17
TORSDOF 6
ENDMDL
MODEL      864
REMARK  Name = ZINC31852179
REMARK  8 active torsions:
REMARK  status: ('A' for Active; 'I' for Inactive)
REMARK    1  A    between atoms: C_1  and  N_2
REMARK    2  A    between atoms: C_3  and  C_5
REMARK    3  A    between atoms: C_7  and  C_11
REMARK    4  A    between atoms: N_9  and  C_10
REMARK    5  A    between atoms: C_11  and  C_13
REMARK    6  A    between atoms: C_13  and  S_14
REMARK    7  A    between atoms: S_14  and  C_15
REMARK    8  A    between atoms: N_19  and  C_20
REMARK                            x       y       z     vdW  Elec       q    Type
REMARK                         _______ _______ _______ _____ _____    ______ ____
ROOT
ATOM      1  C   UNL     1       4.822  -1.741  -2.123  0.00  0.00    +0.000 C 
ATOM      2  O   UNL     1       3.885  -2.433  -2.461  0.00  0.00    +0.000 OA
ENDROOT
BRANCH   1   5
ATOM      3  C   UNL     1       8.426  -2.307  -2.384  0.00  0.00    +0.000 A 
ATOM      4  C   UNL     1       7.384  -1.515  -2.006  0.00  0.00    +0.000 A 
ATOM      5  C   UNL     1       6.195  -2.206  -2.344  0.00  0.00    +0.000 A 
ATOM      6  C   UNL     1       6.576  -3.410  -2.916  0.00  0.00    +0.000 A 
ATOM      7  N   UNL     1       7.916  -3.459  -2.942  0.00  0.00    +0.000 N 
ATOM      8  C   UNL     1       8.713  -4.567  -3.475  0.00  0.00    +0.000 C 
BRANCH   3  11
ATOM      9  C   UNL     1      11.639  -0.589  -1.339  0.00  0.00    +0.000 C 
ATOM     10  N   UNL     1      10.220  -0.861  -1.582  0.00  0.00    +0.000 N 
ATOM     11  C   UNL     1       9.850  -1.987  -2.224  0.00  0.00    +0.000 C 
ATOM     12  O   UNL     1      10.696  -2.737  -2.672  0.00  0.00    +0.000 OA
ATOM     13  H   UNL     1       9.505  -0.192  -1.262  0.00  0.00    +0.000 HD
ENDBRANCH   3  11
ENDBRANCH   1   5
BRANCH   1  14
ATOM     14  C   UNL     1       4.575  -0.401  -1.478  0.00  0.00    +0.000 C 
BRANCH  14  15
ATOM     15  S   UNL     1       2.789  -0.114  -1.346  0.00  0.00    +0.000 S 
BRANCH  15  16
ATOM     16  C   UNL     1       2.667   1.469  -0.583  0.00  0.00    +0.000 A 
ATOM     17  N   UNL     1       3.672   2.228  -0.217  0.00  0.00    +0.000 NA
ATOM     18  N   UNL     1       3.148   3.396   0.352  0.00  0.00    +0.000 NA
ATOM     19  C   UNL     1       1.841   3.315   0.311  0.00  0.00    +0.000 A 
ATOM     20  N   UNL     1       1.509   2.124  -0.271  0.00  0.00    +0.000 N 
ATOM     21  N   UNL     1       0.948   4.272   0.776  0.00  0.00    +0.000 N 
ATOM     22  H   UNL     1       1.370   5.117   1.188  0.00  0.00    +0.000 HD
ATOM     23  H   UNL     1      -0.074   4.159   0.719  0.00  0.00    +0.000 HD
BRANCH  20  24
ATOM     24  C   UNL     1       0.150   1.632  -0.512  0.00  0.00    +0.000 C 
ATOM     25  C   UNL     1      -0.022   0.502  -1.529  0.00  0.00    +0.000 C 
ATOM     26  C   UNL     1      -0.185   0.218  -0.034  0.00  0.00    +0.000 C 
ENDBRANCH  20  24
ENDBRANCH  15  16
ENDBRANCH  14  15
ENDBRANCH   1  14
TORSDOF 6
ENDMDL
MODEL      865
REMARK  Name = ZINC26140662
REMARK  6 active torsions:
REMARK  status: ('A' for Active; 'I' for Inactive)
REMARK    1  A    between atoms: N_8  and  C_11
REMARK    2  A    between atoms: C_11  and  C_12
REMARK    3  A    between atoms: N_14  and  C_15
REMARK    4  A    between atoms: C_15  and  C_16
REMARK    5  A    between atoms: C_16  and  N_17
REMARK    6  A    between atoms: C_18  and  C_20
REMARK                            x       y       z     vdW  Elec       q    Type
REMARK                         _______ _______ _______ _____ _____    ______ ____
ROOT
ATOM      1  C   UNL     1      -2.773   6.884   1.484  0.00  0.00    +0.000 C 
ATOM      2  O   UNL     1      -2.350   6.208   2.399  0.00  0.00    +0.000 OA
ATOM      3  N   UNL     1      -3.465   8.011   1.743  0.00  0.00    +0.000 N 
ATOM      4  H   UNL     1      -3.824   8.585   0.967  0.00  0.00    +0.000 HD
ENDROOT
BRANCH   1   5
ATOM      5  C   UNL     1      -2.523   6.464   0.059  0.00  0.00    +0.000 C 
BRANCH   5  13
ATOM      6  C   UNL     1       1.203   1.791   0.000  0.00  0.00    +0.000 A 
ATOM      7  C   UNL     1      -0.013   1.076   0.008  0.00  0.00    +0.000 A 
ATOM      8  C   UNL     1      -1.189   1.726   0.017  0.00  0.00    +0.000 A 
ATOM      9  N   UNL     1      -1.232   3.100   0.030  0.00  0.00    +0.000 N 
ATOM     10  C   UNL     1      -0.056   3.827   0.022  0.00  0.00    +0.000 A 
ATOM     11  C   UNL     1       1.188   3.146   0.007  0.00  0.00    +0.000 A 
ATOM     12  N   UNL     1      -0.358   5.105   0.032  0.00  0.00    +0.000 NA
ATOM     13  N   UNL     1      -1.755   5.216   0.045  0.00  0.00    +0.000 N 
ATOM     14  C   UNL     1      -2.264   3.967   0.044  0.00  0.00    +0.000 A 
ATOM     15  O   UNL     1      -3.447   3.675   0.053  0.00  0.00    +0.000 OA
ENDBRANCH   5  13
ENDBRANCH   1   5
BRANCH   3  16
ATOM     16  C   UNL     1      -3.708   8.420   3.129  0.00  0.00    +0.000 C 
BRANCH  16  17
ATOM     17  C   UNL     1      -4.510   9.723   3.144  0.00  0.00    +0.000 C 
BRANCH  17  18
ATOM     18  N   UNL     1      -4.753  10.131   4.529  0.00  0.00    +0.000 N 
ATOM     19  C   UNL     1      -5.445  11.258   4.788  0.00  0.00    +0.000 C 
ATOM     20  O   UNL     1      -5.869  11.936   3.871  0.00  0.00    +0.000 OA
ATOM     21  H   UNL     1      -4.394   9.557   5.306  0.00  0.00    +0.000 HD
BRANCH  19  22
ATOM     22  C   UNL     1      -5.688  11.667   6.176  0.00  0.00    +0.000 A 
ATOM     23  C   UNL     1      -6.371  12.780   6.576  0.00  0.00    +0.000 A 
ATOM     24  C   UNL     1      -6.360  12.776   7.980  0.00  0.00    +0.000 A 
ATOM     25  C   UNL     1      -5.680  11.676   8.369  0.00  0.00    +0.000 A 
ATOM     26  O   UNL     1      -5.281  11.007   7.279  0.00  0.00    +0.000 OA
ENDBRANCH  19  22
ENDBRANCH  17  18
ENDBRANCH  16  17
ENDBRANCH   3  16
TORSDOF 6
ENDMDL
MODEL      866
REMARK  Name = ZINC05690847
REMARK  9 active torsions:
REMARK  status: ('A' for Active; 'I' for Inactive)
REMARK    1  A    between atoms: C_1  and  N_2
REMARK    2  A    between atoms: N_2  and  C_3
REMARK    3  A    between atoms: N_2  and  C_4
REMARK    4  A    between atoms: N_2  and  C_21
REMARK    5  A    between atoms: C_4  and  C_5
REMARK    6  A    between atoms: C_5  and  N_6
REMARK    7  A    between atoms: C_7  and  C_9
REMARK    8  A    between atoms: C_15  and  O_16
REMARK    9  A    between atoms: C_21  and  C_22
REMARK                            x       y       z     vdW  Elec       q    Type
REMARK                         _______ _______ _______ _____ _____    ______ ____
ROOT
ATOM      1  C   UNL     1       2.353   1.505  -0.012  0.00  0.00    +0.000 A 
ATOM      2  C   UNL     1       2.393   0.040  -0.023  0.00  0.00    +0.000 A 
ATOM      3  O   UNL     1       3.460  -0.553  -0.033  0.00  0.00    +0.000 OA
ATOM      4  C   UNL     1       1.162  -0.677  -0.021  0.00  0.00    +0.000 A 
ATOM      5  C   UNL     1       0.002  -0.004   0.002  0.00  0.00    +0.000 A 
ATOM      6  N   UNL     1      -0.017   1.365   0.009  0.00  0.00    +0.000 NA
ATOM      7  C   UNL     1       1.103   2.119   0.003  0.00  0.00    +0.000 A 
ATOM      8  C   UNL     1      -1.338  -0.699   0.029  0.00  0.00    +0.000 C 
ATOM      9  C   UNL     1      -1.205  -2.151  -0.421  0.00  0.00    +0.000 C 
ATOM     10  C   UNL     1      -0.079  -2.804   0.391  0.00  0.00    +0.000 C 
ATOM     11  C   UNL     1       1.244  -2.181  -0.047  0.00  0.00    +0.000 C 
ENDROOT
BRANCH   1  13
ATOM     12  N   UNL     1       4.167   2.653   1.147  0.00  0.00    +0.000 N 
ATOM     13  C   UNL     1       3.589   2.297  -0.018  0.00  0.00    +0.000 C 
ATOM     14  O   UNL     1       4.091   2.634  -1.073  0.00  0.00    +0.000 OA
ATOM     15  H   UNL     1       3.741   2.369   2.041  0.00  0.00    +0.000 HD
BRANCH  12  16
ATOM     16  C   UNL     1       5.399   3.444   1.142  0.00  0.00    +0.000 C 
BRANCH  16  17
ATOM     17  C   UNL     1       5.842   3.709   2.582  0.00  0.00    +0.000 C 
BRANCH  17  19
ATOM     18  C   UNL     1       8.132   3.762   1.869  0.00  0.00    +0.000 C 
ATOM     19  N   UNL     1       7.078   4.503   2.577  0.00  0.00    +0.000 N 
ATOM     20  C   UNL     1       6.836   5.781   1.896  0.00  0.00    +0.000 C 
BRANCH  19  21
ATOM     21  C   UNL     1       7.503   4.757   3.960  0.00  0.00    +0.000 C 
BRANCH  21  22
ATOM     22  C   UNL     1       8.771   5.571   3.954  0.00  0.00    +0.000 C 
ATOM     23  C   UNL     1       8.826   6.702   4.613  0.00  0.00    +0.000 C 
ENDBRANCH  21  22
ENDBRANCH  19  21
ENDBRANCH  17  19
ENDBRANCH  16  17
ENDBRANCH  12  16
ENDBRANCH   1  13
BRANCH   7  24
ATOM     24  O   UNL     1       1.011   3.464   0.010  0.00  0.00    +0.000 OA
ATOM     25  H   UNL     1       1.516   3.758  -0.789  0.00  0.00    +0.000 HD
ENDBRANCH   7  24
TORSDOF 7
ENDMDL
MODEL      867
REMARK  Name = ZINC05881991
REMARK  12 active torsions:
REMARK  status: ('A' for Active; 'I' for Inactive)
REMARK    1  A    between atoms: C_1  and  C_2
REMARK    2  A    between atoms: C_2  and  C_3
REMARK    3  A    between atoms: C_2  and  O_4
REMARK    4  A    between atoms: C_2  and  O_5
REMARK    5  A    between atoms: O_5  and  C_6
REMARK    6  A    between atoms: C_7  and  O_23
REMARK    7  A    between atoms: C_9  and  C_14
REMARK    8  A    between atoms: C_11  and  O_12
REMARK    9  A    between atoms: O_12  and  C_13
REMARK   10  A    between atoms: C_14  and  C_15
REMARK   11  A    between atoms: C_20  and  N_21
REMARK   12  A    between atoms: O_23  and  C_24
REMARK                            x       y       z     vdW  Elec       q    Type
REMARK                         _______ _______ _______ _____ _____    ______ ____
ROOT
ATOM      1  C   UNL     1      -1.431   3.410   2.464  0.00  0.00    +0.000 A 
ATOM      2  C   UNL     1      -1.531   4.787   2.629  0.00  0.00    +0.000 A 
ATOM      3  C   UNL     1      -1.000   5.638   1.672  0.00  0.00    +0.000 A 
ATOM      4  C   UNL     1      -0.366   5.119   0.558  0.00  0.00    +0.000 A 
ATOM      5  C   UNL     1      -0.259   3.751   0.394  0.00  0.00    +0.000 A 
ATOM      6  C   UNL     1      -0.787   2.893   1.346  0.00  0.00    +0.000 A 
ENDROOT
BRANCH   6   7
ATOM      7  O   UNL     1      -0.682   1.547   1.184  0.00  0.00    +0.000 OA
ATOM      8  C   UNL     1      -0.013   1.086   0.008  0.00  0.00    +0.000 C 
ENDBRANCH   6   7
BRANCH   2   9
ATOM      9  O   UNL     1      -2.156   5.298   3.723  0.00  0.00    +0.000 OA
ATOM     10  C   UNL     1      -2.228   6.721   3.823  0.00  0.00    +0.000 C 
ENDBRANCH   2   9
BRANCH   4  11
ATOM     11  C   UNL     1       0.211   6.048  -0.479  0.00  0.00    +0.000 C 
BRANCH  11  12
ATOM     12  C   UNL     1      -0.834   6.345  -1.524  0.00  0.00    +0.000 A 
ATOM     13  C   UNL     1      -0.890   5.613  -2.694  0.00  0.00    +0.000 A 
ATOM     14  N   UNL     1      -1.821   5.899  -3.593  0.00  0.00    +0.000 NA
ATOM     15  C   UNL     1      -2.694   6.873  -3.383  0.00  0.00    +0.000 A 
ATOM     16  N   UNL     1      -2.674   7.597  -2.274  0.00  0.00    +0.000 NA
ATOM     17  C   UNL     1      -1.770   7.362  -1.328  0.00  0.00    +0.000 A 
ATOM     18  N   UNL     1      -3.651   7.140  -4.346  0.00  0.00    +0.000 N 
ATOM     19  H   UNL     1      -3.686   6.590  -5.216  0.00  0.00    +0.000 HD
ATOM     20  H   UNL     1      -4.333   7.896  -4.190  0.00  0.00    +0.000 HD
BRANCH  17  21
ATOM     21  N   UNL     1      -1.755   8.118  -0.168  0.00  0.00    +0.000 N 
ATOM     22  H   UNL     1      -1.047   7.927   0.556  0.00  0.00    +0.000 HD
ATOM     23  H   UNL     1      -2.448   8.867  -0.027  0.00  0.00    +0.000 HD
ENDBRANCH  17  21
ENDBRANCH  11  12
ENDBRANCH   4  11
BRANCH   1  24
ATOM     24  O   UNL     1      -1.957   2.571   3.398  0.00  0.00    +0.000 OA
BRANCH  24  26
ATOM     25  C   UNL     1      -0.753   3.409   5.319  0.00  0.00    +0.000 C 
ATOM     26  C   UNL     1      -1.102   2.182   4.475  0.00  0.00    +0.000 C 
ATOM     27  C   UNL     1      -1.819   1.149   5.347  0.00  0.00    +0.000 C 
BRANCH  26  28
ATOM     28  O   UNL     1       0.097   1.610   3.948  0.00  0.00    +0.000 OA
ATOM     29  H   UNL     1       0.690   1.339   4.693  0.00  0.00    +0.000 HD
ENDBRANCH  26  28
ENDBRANCH  24  26
ENDBRANCH   1  24
TORSDOF 8
ENDMDL
MODEL      868
REMARK  Name = ZINC28424433
REMARK  8 active torsions:
REMARK  status: ('A' for Active; 'I' for Inactive)
REMARK    1  A    between atoms: C_1  and  N_2
REMARK    2  A    between atoms: C_3  and  C_7
REMARK    3  A    between atoms: C_7  and  N_8
REMARK    4  A    between atoms: N_11  and  C_12
REMARK    5  A    between atoms: C_12  and  C_13
REMARK    6  A    between atoms: C_17  and  N_19
REMARK    7  A    between atoms: N_19  and  S_20
REMARK    8  A    between atoms: S_20  and  C_23
REMARK                            x       y       z     vdW  Elec       q    Type
REMARK                         _______ _______ _______ _____ _____    ______ ____
ROOT
ATOM      1  N   UNL     1       5.460  -1.629  -7.092  0.00  0.00    +0.000 N 
ATOM      2  C   UNL     1       5.571  -1.896  -5.776  0.00  0.00    +0.000 C 
ATOM      3  O   UNL     1       6.307  -2.787  -5.397  0.00  0.00    +0.000 OA
ATOM      4  N   UNL     1       4.868  -1.176  -4.880  0.00  0.00    +0.000 N 
ATOM      5  H   UNL     1       4.837  -0.874  -7.413  0.00  0.00    +0.000 HD
ATOM      6  H   UNL     1       4.245  -0.421  -5.201  0.00  0.00    +0.000 HD
ENDROOT
BRANCH   1   7
ATOM      7  C   UNL     1       6.224  -2.412  -8.066  0.00  0.00    +0.000 C 
BRANCH   7  10
ATOM      8  C   UNL     1       3.855  -3.277  -9.869  0.00  0.00    +0.000 C 
ATOM      9  N   UNL     1       4.886  -2.302 -10.232  0.00  0.00    +0.000 N 
ATOM     10  C   UNL     1       5.922  -1.917  -9.457  0.00  0.00    +0.000 A 
ATOM     11  C   UNL     1       6.644  -1.010 -10.155  0.00  0.00    +0.000 A 
ATOM     12  C   UNL     1       6.025  -0.831 -11.397  0.00  0.00    +0.000 A 
ATOM     13  N   UNL     1       4.970  -1.603 -11.443  0.00  0.00    +0.000 NA
ENDBRANCH   7  10
ENDBRANCH   1   7
BRANCH   4  14
ATOM     14  C   UNL     1       4.990  -1.467  -3.449  0.00  0.00    +0.000 C 
BRANCH  14  15
ATOM     15  C   UNL     1       4.107  -0.527  -2.669  0.00  0.00    +0.000 A 
ATOM     16  C   UNL     1       4.607   0.686  -2.230  0.00  0.00    +0.000 A 
ATOM     17  C   UNL     1       3.801   1.551  -1.514  0.00  0.00    +0.000 A 
ATOM     18  C   UNL     1       2.491   1.209  -1.239  0.00  0.00    +0.000 A 
ATOM     19  C   UNL     1       1.988  -0.009  -1.674  0.00  0.00    +0.000 A 
ATOM     20  C   UNL     1       2.800  -0.877  -2.394  0.00  0.00    +0.000 A 
BRANCH  19  21
ATOM     21  N   UNL     1       0.665  -0.360  -1.394  0.00  0.00    +0.000 N 
ATOM     22  H   UNL     1      -0.106   0.078  -1.918  0.00  0.00    +0.000 HD
BRANCH  21  23
ATOM     23  S   UNL     1       0.336  -1.481  -0.220  0.00  0.00    +0.000 S 
ATOM     24  O   UNL     1       1.141  -2.603  -0.554  0.00  0.00    +0.000 OA
ATOM     25  O   UNL     1      -1.081  -1.585  -0.205  0.00  0.00    +0.000 OA
ATOM     26  C   UNL     1       0.924  -0.727   1.321  0.00  0.00    +0.000 C 
ENDBRANCH  21  23
ENDBRANCH  19  21
ENDBRANCH  14  15
ENDBRANCH   4  14
TORSDOF 6
ENDMDL
MODEL      869
REMARK  Name = ZINC26654237
REMARK  8 active torsions:
REMARK  status: ('A' for Active; 'I' for Inactive)
REMARK    1  A    between atoms: C_1  and  C_2
REMARK    2  A    between atoms: C_2  and  C_3
REMARK    3  A    between atoms: C_2  and  C_4
REMARK    4  A    between atoms: C_4  and  N_5
REMARK    5  A    between atoms: N_5  and  C_6
REMARK    6  A    between atoms: N_5  and  C_16
REMARK    7  A    between atoms: C_6  and  C_7
REMARK    8  A    between atoms: C_10  and  C_13
REMARK                            x       y       z     vdW  Elec       q    Type
REMARK                         _______ _______ _______ _____ _____    ______ ____
ROOT
ATOM      1  N   UNL     1      -0.763   1.643   1.574  0.00  0.00    +0.000 N 
ATOM      2  H   UNL     1      -0.203   1.776   2.428  0.00  0.00    +0.000 HD
ENDROOT
BRANCH   1   3
ATOM      3  C   UNL     1       0.060   0.908   0.605  0.00  0.00    +0.000 C 
ATOM      4  C   UNL     1      -0.492   1.139  -0.812  0.00  0.00    +0.000 C 
ATOM      5  C   UNL     1       0.561   0.623  -1.833  0.00  0.00    +0.000 C 
ATOM      6  S   UNL     1       2.116   1.214  -1.041  0.00  0.00    +0.000 S 
ATOM      7  O   UNL     1       2.444   2.494  -1.564  0.00  0.00    +0.000 OA
ATOM      8  O   UNL     1       3.081   0.172  -1.084  0.00  0.00    +0.000 OA
ATOM      9  C   UNL     1       1.522   1.408   0.689  0.00  0.00    +0.000 C 
ENDBRANCH   1   3
BRANCH   1  10
ATOM     10  C   UNL     1      -1.962   0.874   1.936  0.00  0.00    +0.000 C 
BRANCH  10  12
ATOM     11  C   UNL     1      -3.894   0.742   3.514  0.00  0.00    +0.000 C 
ATOM     12  C   UNL     1      -2.576   1.456   3.211  0.00  0.00    +0.000 C 
ATOM     13  C   UNL     1      -1.608   1.258   4.379  0.00  0.00    +0.000 C 
ENDBRANCH  10  12
ENDBRANCH   1  10
BRANCH   1  14
ATOM     14  C   UNL     1      -1.124   2.970   1.059  0.00  0.00    +0.000 C 
BRANCH  14  15
ATOM     15  C   UNL     1       0.081   3.874   1.111  0.00  0.00    +0.000 A 
ATOM     16  C   UNL     1       0.416   4.507   2.295  0.00  0.00    +0.000 A 
ATOM     17  C   UNL     1       1.521   5.332   2.351  0.00  0.00    +0.000 A 
ATOM     18  C   UNL     1       2.294   5.535   1.207  0.00  0.00    +0.000 A 
ATOM     19  C   UNL     1       1.947   4.897   0.015  0.00  0.00    +0.000 A 
ATOM     20  C   UNL     1       0.843   4.071  -0.026  0.00  0.00    +0.000 A 
BRANCH  18  21
ATOM     21  C   UNL     1       3.476   6.421   1.258  0.00  0.00    +0.000 C 
ATOM     22  O   UNL     1       4.148   6.596   0.260  0.00  0.00    +0.000 OA
ATOM     23  N   UNL     1       3.809   7.035   2.410  0.00  0.00    +0.000 N 
ATOM     24  H   UNL     1       3.240   6.887   3.256  0.00  0.00    +0.000 HD
ATOM     25  H   UNL     1       4.632   7.653   2.446  0.00  0.00    +0.000 HD
ENDBRANCH  18  21
ENDBRANCH  14  15
ENDBRANCH   1  14
TORSDOF 6
ENDMDL
MODEL      870
REMARK  Name = ZINC19734703
REMARK  9 active torsions:
REMARK  status: ('A' for Active; 'I' for Inactive)
REMARK    1  A    between atoms: C_1  and  C_2
REMARK    2  A    between atoms: C_2  and  C_3
REMARK    3  A    between atoms: C_3  and  C_4
REMARK    4  A    between atoms: C_3  and  N_7
REMARK    5  A    between atoms: C_15  and  C_16
REMARK    6  A    between atoms: C_16  and  C_17
REMARK    7  A    between atoms: C_16  and  N_25
REMARK    8  A    between atoms: C_17  and  C_18
REMARK    9  A    between atoms: C_21  and  O_24
REMARK                            x       y       z     vdW  Elec       q    Type
REMARK                         _______ _______ _______ _____ _____    ______ ____
ROOT
ATOM      1  N   UNL     1      -0.017   1.376   0.010  0.00  0.00    +0.000 N 
ATOM      2  C   UNL     1       0.002  -0.004   0.002  0.00  0.00    +0.000 A 
ATOM      3  C   UNL     1      -0.981  -0.984   0.005  0.00  0.00    +0.000 A 
ATOM      4  C   UNL     1      -0.619  -2.314  -0.006  0.00  0.00    +0.000 A 
ATOM      5  C   UNL     1       0.720  -2.679  -0.021  0.00  0.00    +0.000 A 
ATOM      6  C   UNL     1       1.701  -1.728  -0.025  0.00  0.00    +0.000 A 
ATOM      7  C   UNL     1       1.358  -0.373  -0.013  0.00  0.00    +0.000 A 
ATOM      8  N   UNL     1       2.081   0.776  -0.014  0.00  0.00    +0.000 NA
ATOM      9  C   UNL     1       1.276   1.799  -0.001  0.00  0.00    +0.000 A 
ENDROOT
BRANCH   1  10
ATOM     10  C   UNL     1      -1.208   2.228   0.020  0.00  0.00    +0.000 C 
BRANCH  10  11
ATOM     11  C   UNL     1      -2.037   1.949  -1.208  0.00  0.00    +0.000 C 
ATOM     12  O   UNL     1      -1.669   1.123  -2.009  0.00  0.00    +0.000 OA
ATOM     13  O   UNL     1      -3.182   2.618  -1.411  0.00  0.00    +0.000 OA
ENDBRANCH  10  11
BRANCH  10  15
ATOM     14  C   UNL     1      -3.213   2.907   1.348  0.00  0.00    +0.000 C 
ATOM     15  C   UNL     1      -2.036   1.932   1.272  0.00  0.00    +0.000 C 
ENDBRANCH  10  15
ENDBRANCH   1  10
BRANCH   9  16
ATOM     16  C   UNL     1       1.714   3.241   0.002  0.00  0.00    +0.000 C 
BRANCH  16  17
ATOM     17  N   UNL     1       2.802   3.421   0.972  0.00  0.00    +0.000 N 
ATOM     18  H   UNL     1       3.598   2.821   0.711  0.00  0.00    +0.000 HD
ATOM     19  H   UNL     1       2.472   3.161   1.913  0.00  0.00    +0.000 HD
ATOM     20  H   UNL     1       3.102   4.406   0.975  0.00  0.00    +0.000 HD
ENDBRANCH  16  17
BRANCH  16  21
ATOM     21  C   UNL     1       2.206   3.627  -1.394  0.00  0.00    +0.000 C 
BRANCH  21  22
ATOM     22  C   UNL     1       2.527   5.099  -1.424  0.00  0.00    +0.000 A 
ATOM     23  C   UNL     1       1.550   6.012  -1.774  0.00  0.00    +0.000 A 
ATOM     24  C   UNL     1       1.841   7.362  -1.796  0.00  0.00    +0.000 A 
ATOM     25  C   UNL     1       3.118   7.801  -1.478  0.00  0.00    +0.000 A 
ATOM     26  C   UNL     1       4.098   6.883  -1.133  0.00  0.00    +0.000 A 
ATOM     27  C   UNL     1       3.801   5.534  -1.106  0.00  0.00    +0.000 A 
BRANCH  25  28
ATOM     28  O   UNL     1       3.408   9.129  -1.505  0.00  0.00    +0.000 OA
ATOM     29  H   UNL     1       2.751   9.545  -0.892  0.00  0.00    +0.000 HD
ENDBRANCH  25  28
ENDBRANCH  21  22
ENDBRANCH  16  21
ENDBRANCH   9  16
TORSDOF 8
ENDMDL
MODEL      871
REMARK  Name = ZINC05599572
REMARK  14 active torsions:
REMARK  status: ('A' for Active; 'I' for Inactive)
REMARK    1  A    between atoms: C_1  and  C_2
REMARK    2  A    between atoms: C_2  and  C_3
REMARK    3  A    between atoms: C_7  and  C_22
REMARK    4  A    between atoms: C_8  and  N_9
REMARK    5  A    between atoms: N_9  and  C_10
REMARK    6  A    between atoms: C_10  and  O_11
REMARK    7  A    between atoms: O_11  and  C_12
REMARK    8  A    between atoms: C_12  and  C_13
REMARK    9  A    between atoms: C_14  and  C_16
REMARK   10  A    between atoms: C_16  and  S_17
REMARK   11  A    between atoms: S_17  and  C_18
REMARK   12  A    between atoms: C_18  and  C_19
REMARK   13  A    between atoms: C_19  and  C_20
REMARK   14  A    between atoms: C_19  and  N_24
REMARK                            x       y       z     vdW  Elec       q    Type
REMARK                         _______ _______ _______ _____ _____    ______ ____
ROOT
ATOM      1  N   UNK     1       0.333  -0.679   1.495  0.00  0.00    +0.000 N 
ATOM      2  C   UNK     1      -0.466  -1.408   2.299  0.00  0.00    +0.000 C 
ATOM      3  O   UNK     1      -1.625  -1.594   1.995  0.00  0.00    +0.000 OA
ENDROOT
BRANCH   1   9
ATOM      4  C   UNK     1       2.701  -1.153   1.451  0.00  0.00    +0.000 A 
ATOM      5  C   UNK     1       3.989  -0.851   1.848  0.00  0.00    +0.000 A 
ATOM      6  C   UNK     1       4.222   0.224   2.686  0.00  0.00    +0.000 A 
ATOM      7  C   UNK     1       3.166   0.999   3.130  0.00  0.00    +0.000 A 
ATOM      8  C   UNK     1       1.877   0.706   2.732  0.00  0.00    +0.000 A 
ATOM      9  C   UNK     1       1.639  -0.376   1.895  0.00  0.00    +0.000 A 
ATOM     10  C   UNK     1       0.728   1.556   3.210  0.00  0.00    +0.000 C 
BRANCH   4  12
ATOM     11  C   UNK     1       2.657  -1.894  -0.915  0.00  0.00    +0.000 C 
ATOM     12  C   UNK     1       2.448  -2.325   0.538  0.00  0.00    +0.000 C 
ENDBRANCH   4  12
ENDBRANCH   1   9
BRANCH   1  13
ATOM     13  C   UNK     1      -0.166  -0.205   0.201  0.00  0.00    +0.000 C 
BRANCH  13  14
ATOM     14  O   UNK     1      -0.447   1.194   0.283  0.00  0.00    +0.000 OA
BRANCH  14  15
ATOM     15  C   UNK     1       0.696   2.029   0.088  0.00  0.00    +0.000 C 
ATOM     16  C   UNK     1       0.307   3.490   0.323  0.00  0.00    +0.000 C 
ENDBRANCH  14  15
ENDBRANCH  13  14
ENDBRANCH   1  13
BRANCH   2  17
ATOM     17  C   UNK     1       0.081  -1.992   3.576  0.00  0.00    +0.000 C 
BRANCH  17  18
ATOM     18  S   UNK     1      -1.183  -3.036   4.354  0.00  0.00    +0.000 S 
BRANCH  18  19
ATOM     19  C   UNK     1      -0.378  -3.654   5.857  0.00  0.00    +0.000 C 
BRANCH  19  20
ATOM     20  C   UNK     1      -1.347  -4.560   6.619  0.00  0.00    +0.000 C 
BRANCH  20  21
ATOM     21  N   UNK     1      -2.554  -3.788   6.962  0.00  0.00    +0.000 N 
ATOM     22  H   UNK     1      -3.007  -3.450   6.101  0.00  0.00    +0.000 HD
ATOM     23  H   UNK     1      -2.298  -2.986   7.555  0.00  0.00    +0.000 HD
ATOM     24  H   UNK     1      -3.210  -4.394   7.476  0.00  0.00    +0.000 HD
ENDBRANCH  20  21
BRANCH  20  25
ATOM     25  C   UNK     1      -0.677  -5.074   7.867  0.00  0.00    +0.000 C 
ATOM     26  O   UNK     1      -0.911  -4.556   8.934  0.00  0.00    +0.000 OA
ATOM     27  O   UNK     1       0.177  -6.106   7.795  0.00  0.00    +0.000 OA
ENDBRANCH  20  25
ENDBRANCH  19  20
ENDBRANCH  18  19
ENDBRANCH  17  18
ENDBRANCH   2  17
TORSDOF 11
ENDMDL
MODEL      872
REMARK  Name = ZINC04642048
REMARK  11 active torsions:
REMARK  status: ('A' for Active; 'I' for Inactive)
REMARK    1  A    between atoms: C_1  and  C_2
REMARK    2  A    between atoms: C_2  and  N_25
REMARK    3  A    between atoms: C_3  and  C_4
REMARK    4  A    between atoms: C_3  and  N_25
REMARK    5  A    between atoms: C_5  and  C_6
REMARK    6  A    between atoms: C_5  and  N_25
REMARK    7  A    between atoms: C_6  and  N_26
REMARK    8  A    between atoms: C_7  and  C_9
REMARK    9  A    between atoms: C_7  and  N_26
REMARK   10  A    between atoms: N_15  and  C_18
REMARK   11  A    between atoms: C_18  and  C_19
REMARK                            x       y       z     vdW  Elec       q    Type
REMARK                         _______ _______ _______ _____ _____    ______ ____
ROOT
ATOM      1  C   UNL     1       1.728   6.512  -2.348  0.00  0.00    +0.000 A 
ATOM      2  C   UNL     1       2.875   5.571  -2.663  0.00  0.00    +0.000 A 
ATOM      3  O   UNL     1       3.518   5.683  -3.685  0.00  0.00    +0.000 OA
ATOM      4  N   UNL     1       3.154   4.604  -1.763  0.00  0.00    +0.000 N 
ATOM      5  C   UNL     1       2.458   4.470  -0.629  0.00  0.00    +0.000 A 
ATOM      6  O   UNL     1       2.780   3.575   0.127  0.00  0.00    +0.000 OA
ATOM      7  N   UNL     1       1.429   5.246  -0.268  0.00  0.00    +0.000 N 
ATOM      8  C   UNL     1       1.001   6.268  -1.039  0.00  0.00    +0.000 A 
ATOM      9  O   UNL     1       0.070   6.966  -0.697  0.00  0.00    +0.000 OA
ATOM     10  H   UNL     1       3.926   3.949  -1.956  0.00  0.00    +0.000 HD
ENDROOT
BRANCH   1  11
ATOM     11  C   UNL     1       0.723   6.417  -3.467  0.00  0.00    +0.000 C 
ATOM     12  C   UNL     1       0.514   7.453  -4.257  0.00  0.00    +0.000 C 
BRANCH  11  13
ATOM     13  N   UNL     1       0.027   5.181  -3.622  0.00  0.00    +0.000 NA
ATOM     14  H   UNL     1       0.720   4.432  -3.764  0.00  0.00    +0.000 HD
ATOM     15  H   UNL     1      -0.468   4.972  -2.744  0.00  0.00    +0.000 HD
BRANCH  13  16
ATOM     16  C   UNL     1      -0.962   5.146  -4.754  0.00  0.00    +0.000 C 
BRANCH  16  17
ATOM     17  C   UNL     1      -1.595   3.753  -4.754  0.00  0.00    +0.000 C 
BRANCH  17  18
ATOM     18  N   UNL     1      -2.593   3.682  -5.842  0.00  0.00    +0.000 NA
BRANCH  18  20
ATOM     19  C   UNL     1      -0.931   2.581  -7.304  0.00  0.00    +0.000 C 
ATOM     20  C   UNL     1      -1.915   3.744  -7.154  0.00  0.00    +0.000 C 
ENDBRANCH  18  20
BRANCH  18  21
ATOM     21  C   UNL     1      -3.371   2.430  -5.734  0.00  0.00    +0.000 C 
ATOM     22  C   UNL     1      -4.613   2.545  -6.620  0.00  0.00    +0.000 C 
ENDBRANCH  18  21
ENDBRANCH  17  18
ENDBRANCH  16  17
ENDBRANCH  13  16
ENDBRANCH  11  13
ENDBRANCH   1  11
BRANCH   7  23
ATOM     23  C   UNL     1       0.751   4.982   1.003  0.00  0.00    +0.000 C 
BRANCH  23  24
ATOM     24  C   UNL     1      -0.383   4.015   0.776  0.00  0.00    +0.000 A 
ATOM     25  C   UNL     1      -0.161   2.654   0.877  0.00  0.00    +0.000 A 
ATOM     26  C   UNL     1      -1.201   1.767   0.670  0.00  0.00    +0.000 A 
ATOM     27  C   UNL     1      -2.461   2.241   0.356  0.00  0.00    +0.000 A 
ATOM     28  C   UNL     1      -2.683   3.602   0.259  0.00  0.00    +0.000 A 
ATOM     29  C   UNL     1      -1.644   4.488   0.468  0.00  0.00    +0.000 A 
ENDBRANCH  23  24
ENDBRANCH   7  23
TORSDOF 9
ENDMDL
MODEL      873
REMARK  Name = ZINC20872542
REMARK  12 active torsions:
REMARK  status: ('A' for Active; 'I' for Inactive)
REMARK    1  A    between atoms: C_1  and  N_2
REMARK    2  A    between atoms: C_3  and  S_7
REMARK    3  A    between atoms: S_7  and  C_8
REMARK    4  A    between atoms: C_8  and  C_9
REMARK    5  A    between atoms: C_9  and  N_10
REMARK    6  A    between atoms: N_10  and  C_11
REMARK    7  A    between atoms: C_11  and  C_12
REMARK    8  A    between atoms: C_16  and  O_23
REMARK    9  A    between atoms: C_17  and  O_18
REMARK   10  A    between atoms: O_18  and  C_19
REMARK   11  A    between atoms: C_19  and  C_20
REMARK   12  A    between atoms: O_23  and  C_24
REMARK                            x       y       z     vdW  Elec       q    Type
REMARK                         _______ _______ _______ _____ _____    ______ ____
ROOT
ATOM      1  C   UNL     1       0.802   1.984   2.990  0.00  0.00    +0.000 A 
ATOM      2  C   UNL     1       1.344   1.611   4.207  0.00  0.00    +0.000 A 
ATOM      3  C   UNL     1       0.938   0.439   4.817  0.00  0.00    +0.000 A 
ATOM      4  C   UNL     1      -0.011  -0.366   4.214  0.00  0.00    +0.000 A 
ATOM      5  C   UNL     1      -0.561   0.005   2.998  0.00  0.00    +0.000 A 
ATOM      6  C   UNL     1      -0.148   1.182   2.380  0.00  0.00    +0.000 A 
ENDROOT
BRANCH   5   7
ATOM      7  O   UNL     1      -1.498  -0.783   2.406  0.00  0.00    +0.000 OA
ATOM      8  C   UNL     1      -1.874  -1.976   3.098  0.00  0.00    +0.000 C 
ENDBRANCH   5   7
BRANCH   6   9
ATOM      9  O   UNL     1      -0.682   1.547   1.184  0.00  0.00    +0.000 OA
BRANCH   9  10
ATOM     10  C   UNL     1      -0.013   1.086   0.008  0.00  0.00    +0.000 C 
BRANCH  10  11
ATOM     11  C   UNL     1      -0.742   1.585  -1.213  0.00  0.00    +0.000 C 
ATOM     12  O   UNL     1      -1.736   2.268  -1.088  0.00  0.00    +0.000 OA
ATOM     13  N   UNL     1      -0.288   1.272  -2.443  0.00  0.00    +0.000 N 
ATOM     14  H   UNL     1       0.556   0.692  -2.549  0.00  0.00    +0.000 HD
ATOM     15  H   UNL     1      -0.787   1.613  -3.278  0.00  0.00    +0.000 HD
ENDBRANCH  10  11
ENDBRANCH   9  10
ENDBRANCH   6   9
BRANCH   1  16
ATOM     16  C   UNL     1       1.248   3.262   2.327  0.00  0.00    +0.000 C 
BRANCH  16  17
ATOM     17  N   UNL     1       0.254   4.314   2.576  0.00  0.00    +0.000 N 
ATOM     18  H   UNL     1       0.159   4.458   3.591  0.00  0.00    +0.000 HD
ATOM     19  H   UNL     1      -0.657   4.017   2.196  0.00  0.00    +0.000 HD
BRANCH  17  20
ATOM     20  C   UNL     1       0.655   5.578   1.943  0.00  0.00    +0.000 C 
BRANCH  20  21
ATOM     21  C   UNL     1      -0.402   6.647   2.223  0.00  0.00    +0.000 C 
BRANCH  21  22
ATOM     22  S   UNL     1       0.092   8.204   1.443  0.00  0.00    +0.000 S 
BRANCH  22  25
ATOM     23  C   UNL     1      -0.531  11.384   0.820  0.00  0.00    +0.000 C 
ATOM     24  N   UNL     1      -1.430  10.534   1.605  0.00  0.00    +0.000 N 
ATOM     25  C   UNL     1      -1.264   9.226   1.913  0.00  0.00    +0.000 A 
ATOM     26  N   UNL     1      -2.302   8.864   2.635  0.00  0.00    +0.000 NA
ATOM     27  N   UNL     1      -3.107   9.852   2.793  0.00  0.00    +0.000 NA
ATOM     28  N   UNL     1      -2.652  10.900   2.196  0.00  0.00    +0.000 NA
ENDBRANCH  22  25
ENDBRANCH  21  22
ENDBRANCH  20  21
ENDBRANCH  17  20
ENDBRANCH  16  17
ENDBRANCH   1  16
TORSDOF 10
ENDMDL
MODEL      874
REMARK  Name = ZINC20934722
REMARK  12 active torsions:
REMARK  status: ('A' for Active; 'I' for Inactive)
REMARK    1  A    between atoms: C_1  and  C_2
REMARK    2  A    between atoms: C_2  and  O_3
REMARK    3  A    between atoms: O_3  and  C_4
REMARK    4  A    between atoms: C_6  and  C_14
REMARK    5  A    between atoms: C_9  and  O_10
REMARK    6  A    between atoms: O_10  and  C_11
REMARK    7  A    between atoms: C_11  and  C_12
REMARK    8  A    between atoms: C_12  and  O_13
REMARK    9  A    between atoms: C_14  and  N_15
REMARK   10  A    between atoms: N_15  and  C_16
REMARK   11  A    between atoms: C_16  and  C_17
REMARK   12  A    between atoms: C_20  and  C_23
REMARK                            x       y       z     vdW  Elec       q    Type
REMARK                         _______ _______ _______ _____ _____    ______ ____
ROOT
ATOM      1  C   UNL     1      -0.148   1.182   2.380  0.00  0.00    +0.000 A 
ATOM      2  C   UNL     1       0.993   0.398   2.422  0.00  0.00    +0.000 A 
ATOM      3  C   UNL     1       1.534   0.028   3.639  0.00  0.00    +0.000 A 
ATOM      4  C   UNL     1       0.938   0.438   4.817  0.00  0.00    +0.000 A 
ATOM      5  C   UNL     1      -0.201   1.221   4.783  0.00  0.00    +0.000 A 
ATOM      6  C   UNL     1      -0.745   1.600   3.566  0.00  0.00    +0.000 A 
ENDROOT
BRANCH   3   7
ATOM      7  C   UNL     1       2.775  -0.826   3.682  0.00  0.00    +0.000 C 
BRANCH   7   8
ATOM      8  N   UNL     1       3.963   0.038   3.695  0.00  0.00    +0.000 N 
ATOM      9  H   UNL     1       3.967   0.623   2.847  0.00  0.00    +0.000 HD
ATOM     10  H   UNL     1       3.929   0.652   4.521  0.00  0.00    +0.000 HD
BRANCH   8  11
ATOM     11  C   UNL     1       5.195  -0.761   3.737  0.00  0.00    +0.000 C 
BRANCH  11  12
ATOM     12  C   UNL     1       6.390   0.158   3.748  0.00  0.00    +0.000 A 
ATOM     13  C   UNL     1       6.967   0.553   2.554  0.00  0.00    +0.000 A 
ATOM     14  C   UNL     1       8.057   1.397   2.558  0.00  0.00    +0.000 A 
ATOM     15  C   UNL     1       8.585   1.845   3.770  0.00  0.00    +0.000 A 
ATOM     16  C   UNL     1       8.002   1.439   4.971  0.00  0.00    +0.000 A 
ATOM     17  C   UNL     1       6.908   0.598   4.953  0.00  0.00    +0.000 A 
BRANCH  15  18
ATOM     18  C   UNL     1       9.757   2.746   3.781  0.00  0.00    +0.000 C 
ATOM     19  O   UNL     1      10.214   3.134   4.838  0.00  0.00    +0.000 OA
ATOM     20  O   UNL     1      10.318   3.136   2.620  0.00  0.00    +0.000 OA
ENDBRANCH  15  18
ENDBRANCH  11  12
ENDBRANCH   8  11
ENDBRANCH   7   8
ENDBRANCH   3   7
BRANCH   1  21
ATOM     21  O   UNL     1      -0.682   1.547   1.184  0.00  0.00    +0.000 OA
BRANCH  21  23
ATOM     22  C   UNL     1      -0.753   1.593  -1.232  0.00  0.00    +0.000 C 
ATOM     23  C   UNL     1      -0.013   1.086   0.008  0.00  0.00    +0.000 C 
ENDBRANCH  21  23
ENDBRANCH   1  21
BRANCH   6  24
ATOM     24  O   UNL     1      -1.862   2.374   3.531  0.00  0.00    +0.000 OA
BRANCH  24  25
ATOM     25  C   UNL     1      -2.420   2.766   4.787  0.00  0.00    +0.000 C 
BRANCH  25  26
ATOM     26  C   UNL     1      -3.663   3.626   4.546  0.00  0.00    +0.000 C 
BRANCH  26  27
ATOM     27  O   UNL     1      -4.673   2.838   3.913  0.00  0.00    +0.000 OA
ATOM     28  H   UNL     1      -4.909   2.073   4.496  0.00  0.00    +0.000 HD
ENDBRANCH  26  27
ENDBRANCH  25  26
ENDBRANCH  24  25
ENDBRANCH   6  24
TORSDOF 11
ENDMDL
MODEL      875
REMARK  Name = ZINC19366398
REMARK  14 active torsions:
REMARK  status: ('A' for Active; 'I' for Inactive)
REMARK    1  A    between atoms: C_1  and  C_2
REMARK    2  A    between atoms: C_2  and  N_3
REMARK    3  A    between atoms: N_3  and  C_4
REMARK    4  A    between atoms: N_3  and  C_6
REMARK    5  A    between atoms: C_4  and  C_5
REMARK    6  A    between atoms: C_6  and  C_7
REMARK    7  A    between atoms: C_7  and  N_8
REMARK    8  A    between atoms: N_8  and  C_9
REMARK    9  A    between atoms: C_9  and  C_10
REMARK   10  A    between atoms: C_10  and  C_11
REMARK   11  A    between atoms: C_11  and  S_12
REMARK   12  A    between atoms: S_12  and  C_15
REMARK   13  A    between atoms: C_18  and  N_21
REMARK   14  A    between atoms: C_22  and  C_24
REMARK                            x       y       z     vdW  Elec       q    Type
REMARK                         _______ _______ _______ _____ _____    ______ ____
ROOT
ATOM      1  S   UNL     1      -1.110   8.070  -0.317  0.00  0.00    +0.000 S 
ATOM      2  O   UNL     1       0.111   8.342  -0.993  0.00  0.00    +0.000 OA
ATOM      3  O   UNL     1      -2.354   8.450  -0.889  0.00  0.00    +0.000 OA
ENDROOT
BRANCH   1   4
ATOM      4  C   UNL     1      -1.182   6.313  -0.209  0.00  0.00    +0.000 A 
ATOM      5  C   UNL     1      -2.407   5.678  -0.116  0.00  0.00    +0.000 A 
ATOM      6  C   UNL     1      -2.467   4.301  -0.030  0.00  0.00    +0.000 A 
ATOM      7  C   UNL     1      -1.296   3.554  -0.038  0.00  0.00    +0.000 A 
ATOM      8  C   UNL     1      -0.067   4.196  -0.126  0.00  0.00    +0.000 A 
ATOM      9  C   UNL     1      -0.014   5.573  -0.217  0.00  0.00    +0.000 A 
BRANCH   7  10
ATOM     10  N   UNL     1      -1.353   2.159   0.048  0.00  0.00    +0.000 N 
ATOM     11  C   UNL     1      -2.363   1.488  -0.541  0.00  0.00    +0.000 C 
ATOM     12  O   UNL     1      -3.264   2.097  -1.077  0.00  0.00    +0.000 OA
ATOM     13  C   UNL     1      -2.376  -0.019  -0.527  0.00  0.00    +0.000 C 
ATOM     14  H   UNL     1      -0.624   1.644   0.562  0.00  0.00    +0.000 HD
ENDBRANCH   7  10
ENDBRANCH   1   4
BRANCH   1  15
ATOM     15  C   UNL     1      -1.012   8.640   1.402  0.00  0.00    +0.000 C 
BRANCH  15  16
ATOM     16  C   UNL     1      -0.944  10.168   1.430  0.00  0.00    +0.000 C 
BRANCH  16  17
ATOM     17  C   UNL     1      -0.862  10.649   2.880  0.00  0.00    +0.000 C 
BRANCH  17  18
ATOM     18  N   UNL     1      -0.797  12.116   2.907  0.00  0.00    +0.000 N 
ATOM     19  H   UNL     1      -1.638  12.502   2.455  0.00  0.00    +0.000 HD
ATOM     20  H   UNL     1       0.034  12.428   2.383  0.00  0.00    +0.000 HD
BRANCH  18  21
ATOM     21  C   UNL     1      -0.717  12.615   4.286  0.00  0.00    +0.000 C 
BRANCH  21  22
ATOM     22  C   UNL     1      -0.650  14.143   4.273  0.00  0.00    +0.000 C 
BRANCH  22  23
ATOM     23  N   UNL     1      -0.457  14.637   5.643  0.00  0.00    +0.000 NA
BRANCH  23  25
ATOM     24  C   UNL     1       0.922  14.542   7.665  0.00  0.00    +0.000 C 
ATOM     25  C   UNL     1       0.854  14.232   6.168  0.00  0.00    +0.000 C 
ENDBRANCH  23  25
BRANCH  23  26
ATOM     26  C   UNL     1      -0.622  16.095   5.706  0.00  0.00    +0.000 C 
ATOM     27  C   UNL     1      -2.108  16.445   5.619  0.00  0.00    +0.000 C 
ENDBRANCH  23  26
ENDBRANCH  22  23
ENDBRANCH  21  22
ENDBRANCH  18  21
ENDBRANCH  17  18
ENDBRANCH  16  17
ENDBRANCH  15  16
ENDBRANCH   1  15
TORSDOF 11
ENDMDL
MODEL      876
REMARK  Name = ZINC13729312
REMARK  13 active torsions:
REMARK  status: ('A' for Active; 'I' for Inactive)
REMARK    1  A    between atoms: C_1  and  N_25
REMARK    2  A    between atoms: C_2  and  N_25
REMARK    3  A    between atoms: C_3  and  C_4
REMARK    4  A    between atoms: C_3  and  N_25
REMARK    5  A    between atoms: C_4  and  C_5
REMARK    6  A    between atoms: C_5  and  N_6
REMARK    7  A    between atoms: C_7  and  C_9
REMARK    8  A    between atoms: N_11  and  C_12
REMARK    9  A    between atoms: C_17  and  C_18
REMARK   10  A    between atoms: N_20  and  C_21
REMARK   11  A    between atoms: C_21  and  C_22
REMARK   12  A    between atoms: C_22  and  O_23
REMARK   13  A    between atoms: O_23  and  C_24
REMARK                            x       y       z     vdW  Elec       q    Type
REMARK                         _______ _______ _______ _____ _____    ______ ____
ROOT
ATOM      1  C   UNL     1      -0.018   1.222   0.028  0.00  0.00    +0.000 C 
ATOM      2  O   UNL     1       0.003   0.008   0.007  0.00  0.00    +0.000 OA
ATOM      3  N   UNL     1      -1.197   1.875   0.033  0.00  0.00    +0.000 N 
ATOM      4  H   UNL     1      -1.216   2.901   0.120  0.00  0.00    +0.000 HD
ENDROOT
BRANCH   3   5
ATOM      5  C   UNL     1      -2.387   1.164  -0.078  0.00  0.00    +0.000 A 
ATOM      6  C   UNL     1      -2.508  -0.090   0.507  0.00  0.00    +0.000 A 
ATOM      7  C   UNL     1      -3.692  -0.792   0.400  0.00  0.00    +0.000 A 
ATOM      8  C   UNL     1      -4.763  -0.257  -0.298  0.00  0.00    +0.000 A 
ATOM      9  C   UNL     1      -4.660   0.983  -0.889  0.00  0.00    +0.000 A 
ATOM     10  C   UNL     1      -3.470   1.708  -0.785  0.00  0.00    +0.000 A 
BRANCH  10  11
ATOM     11  C   UNL     1      -3.353   3.036  -1.416  0.00  0.00    +0.000 C 
ATOM     12  O   UNL     1      -2.286   3.620  -1.409  0.00  0.00    +0.000 OA
ATOM     13  N   UNL     1      -4.427   3.602  -2.000  0.00  0.00    +0.000 N 
ATOM     14  H   UNL     1      -5.330   3.107  -2.006  0.00  0.00    +0.000 HD
BRANCH  13  15
ATOM     15  C   UNL     1      -4.311   4.921  -2.627  0.00  0.00    +0.000 C 
BRANCH  15  16
ATOM     16  C   UNL     1      -5.664   5.330  -3.210  0.00  0.00    +0.000 C 
BRANCH  16  17
ATOM     17  O   UNL     1      -6.609   5.497  -2.151  0.00  0.00    +0.000 OA
ATOM     18  C   UNL     1      -7.913   5.881  -2.591  0.00  0.00    +0.000 C 
ENDBRANCH  16  17
ENDBRANCH  15  16
ENDBRANCH  13  15
ENDBRANCH  10  11
ENDBRANCH   3   5
BRANCH   1  20
ATOM     19  N   UNL     1       2.441   1.337   0.029  0.00  0.00    +0.000 N 
ATOM     20  C   UNL     1       1.262   1.990   0.041  0.00  0.00    +0.000 C 
ATOM     21  O   UNL     1       1.242   3.204   0.061  0.00  0.00    +0.000 OA
ATOM     22  H   UNL     1       2.459   0.307   0.012  0.00  0.00    +0.000 HD
BRANCH  19  23
ATOM     23  C   UNL     1       3.697   2.091   0.042  0.00  0.00    +0.000 C 
BRANCH  23  24
ATOM     24  C   UNL     1       4.877   1.117   0.025  0.00  0.00    +0.000 C 
BRANCH  24  25
ATOM     25  C   UNL     1       6.189   1.905   0.038  0.00  0.00    +0.000 C 
BRANCH  25  28
ATOM     26  C   UNL     1       7.372   0.226  -1.244  0.00  0.00    +0.000 C 
ATOM     27  C   UNL     1       8.587   1.671   0.272  0.00  0.00    +0.000 C 
ATOM     28  N   UNL     1       7.317   0.950   0.043  0.00  0.00    +0.000 N 
ATOM     29  H   UNL     1       7.177   0.270   0.804  0.00  0.00    +0.000 HD
ENDBRANCH  25  28
ENDBRANCH  24  25
ENDBRANCH  23  24
ENDBRANCH  19  23
ENDBRANCH   1  20
TORSDOF 10
ENDMDL
MODEL      877
REMARK  Name = ZINC09325686
REMARK  9 active torsions:
REMARK  status: ('A' for Active; 'I' for Inactive)
REMARK    1  A    between atoms: C_3  and  N_8
REMARK    2  A    between atoms: C_9  and  C_11
REMARK    3  A    between atoms: C_11  and  C_12
REMARK    4  A    between atoms: C_12  and  C_13
REMARK    5  A    between atoms: C_12  and  N_24
REMARK    6  A    between atoms: C_15  and  C_16
REMARK    7  A    between atoms: C_15  and  N_24
REMARK    8  A    between atoms: C_16  and  C_17
REMARK    9  A    between atoms: C_17  and  N_18
REMARK                            x       y       z     vdW  Elec       q    Type
REMARK                         _______ _______ _______ _____ _____    ______ ____
ROOT
ATOM      1  C   UNK A   1      -6.061   1.897   0.358  0.00  0.00    +0.000 C 
ENDROOT
BRANCH   1   2
ATOM      2  N   UNK A   1      -6.176   2.662  -0.898  0.00  0.00    +0.000 N 
ATOM      3  H   UNK A   1      -5.236   2.831  -1.283  0.00  0.00    +0.000 HD
ATOM      4  H   UNK A   1      -6.727   2.120  -1.580  0.00  0.00    +0.000 HD
BRANCH   2   5
ATOM      5  C   UNK A   0      -6.841   3.955  -0.651  0.00  0.00    +0.000 C 
BRANCH   5   6
ATOM      6  C   UNK A   0      -6.947   4.725  -1.969  0.00  0.00    +0.000 C 
BRANCH   6   7
ATOM      7  C   UNK A   0      -7.636   6.069  -1.721  0.00  0.00    +0.000 C 
BRANCH   7   8
ATOM      8  N   UNK A   0      -7.736   6.806  -2.983  0.00  0.00    +0.000 N 
ATOM      9  C   UNK A   0      -6.816   7.685  -3.486  0.00  0.00    +0.000 A 
ATOM     10  C   UNK A   0      -7.301   8.128  -4.661  0.00  0.00    +0.000 A 
ATOM     11  N   UNK A   0      -8.491   7.543  -4.866  0.00  0.00    +0.000 NA
ATOM     12  C   UNK A   0      -8.758   6.749  -3.865  0.00  0.00    +0.000 A 
ENDBRANCH   7   8
ENDBRANCH   6   7
ENDBRANCH   5   6
ENDBRANCH   2   5
ENDBRANCH   1   2
BRANCH   1  13
ATOM     13  C   UNK A   1      -7.334   1.127   0.596  0.00  0.00    +0.000 C 
ATOM     14  O   UNK A   1      -8.247   1.209  -0.192  0.00  0.00    +0.000 OA
ATOM     15  O   UNK A   1      -7.454   0.349   1.683  0.00  0.00    +0.000 OA
ENDBRANCH   1  13
BRANCH   1  16
ATOM     16  C   UNK A   1      -4.888   0.921   0.245  0.00  0.00    +0.000 C 
BRANCH  16  18
ATOM     17  N   UNK A   1      -2.427   1.040   0.019  0.00  0.00    +0.000 N 
ATOM     18  C   UNK A   1      -3.600   1.695   0.130  0.00  0.00    +0.000 C 
ATOM     19  O   UNK A   1      -3.619   2.908   0.137  0.00  0.00    +0.000 OA
ATOM     20  H   UNK A   1      -2.417   0.014  -0.069  0.00  0.00    +0.000 HD
BRANCH  17  23
ATOM     21  C   UNK A   1       0.086   3.612   0.786  0.00  0.00    +0.000 A 
ATOM     22  C   UNK A   1      -1.105   2.913   0.779  0.00  0.00    +0.000 A 
ATOM     23  C   UNK A   1      -1.224   1.754   0.023  0.00  0.00    +0.000 A 
ATOM     24  C   UNK A   1      -0.148   1.308  -0.733  0.00  0.00    +0.000 A 
ATOM     25  C   UNK A   1       1.041   2.012  -0.722  0.00  0.00    +0.000 A 
ATOM     26  C   UNK A   1       1.158   3.163   0.037  0.00  0.00    +0.000 A 
ATOM     27 CL   UNK A   1       2.389   1.452  -1.662  0.00  0.00    +0.000 Cl
ENDBRANCH  17  23
ENDBRANCH  16  18
ENDBRANCH   1  16
TORSDOF 9
ENDMDL
MODEL      878
REMARK  Name = ZINC01763758
REMARK  11 active torsions:
REMARK  status: ('A' for Active; 'I' for Inactive)
REMARK    1  A    between atoms: C_3  and  N_15
REMARK    2  A    between atoms: C_6  and  N_7
REMARK    3  A    between atoms: C_8  and  C_10
REMARK    4  A    between atoms: C_10  and  C_11
REMARK    5  A    between atoms: C_10  and  N_23
REMARK    6  A    between atoms: C_11  and  C_12
REMARK    7  A    between atoms: C_12  and  C_13
REMARK    8  A    between atoms: N_15  and  C_16
REMARK    9  A    between atoms: N_15  and  C_19
REMARK   10  A    between atoms: C_16  and  C_17
REMARK   11  A    between atoms: C_19  and  C_20
REMARK                            x       y       z     vdW  Elec       q    Type
REMARK                         _______ _______ _______ _____ _____    ______ ____
ROOT
ATOM      1  N   UNL     1      -1.240   2.068   0.019  0.00  0.00    +0.000 N 
ATOM      2  C   UNL     1      -2.342   1.471   0.514  0.00  0.00    +0.000 C 
ATOM      3  O   UNL     1      -2.258   0.379   1.034  0.00  0.00    +0.000 OA
ATOM      4  H   UNL     1      -1.296   3.029  -0.348  0.00  0.00    +0.000 HD
ENDROOT
BRANCH   1  10
ATOM      5  C   UNL     1       1.171   2.079   0.172  0.00  0.00    +0.000 A 
ATOM      6  C   UNL     1       2.376   1.404   0.151  0.00  0.00    +0.000 A 
ATOM      7  C   UNL     1       2.397   0.028  -0.036  0.00  0.00    +0.000 A 
ATOM      8  C   UNL     1       1.207  -0.669  -0.204  0.00  0.00    +0.000 A 
ATOM      9  C   UNL     1       0.003   0.007  -0.183  0.00  0.00    +0.000 A 
ATOM     10  C   UNL     1      -0.018   1.382   0.004  0.00  0.00    +0.000 A 
BRANCH   7  11
ATOM     11  N   UNL     1       3.617  -0.656  -0.056  0.00  0.00    +0.000 N 
BRANCH  11  12
ATOM     12  C   UNL     1       4.872   0.079   0.120  0.00  0.00    +0.000 C 
BRANCH  12  13
ATOM     13  C   UNL     1       5.223   0.139   1.608  0.00  0.00    +0.000 C 
ATOM     14 CL   UNL     1       6.767   1.043   1.825  0.00  0.00    +0.000 Cl
ENDBRANCH  12  13
ENDBRANCH  11  12
BRANCH  11  15
ATOM     15  C   UNL     1       3.640  -2.108  -0.254  0.00  0.00    +0.000 C 
BRANCH  15  16
ATOM     16  C   UNL     1       3.734  -2.418  -1.749  0.00  0.00    +0.000 C 
ATOM     17 CL   UNL     1       3.762  -4.204  -1.992  0.00  0.00    +0.000 Cl
ENDBRANCH  15  16
ENDBRANCH  11  15
ENDBRANCH   7  11
ENDBRANCH   1  10
BRANCH   2  18
ATOM     18  C   UNL     1      -3.679   2.162   0.422  0.00  0.00    +0.000 C 
BRANCH  18  19
ATOM     19  N   UNL     1      -4.619   1.595   1.405  0.00  0.00    +0.000 N 
ATOM     20  H   UNL     1      -4.233   1.719   2.352  0.00  0.00    +0.000 HD
ATOM     21  H   UNL     1      -4.738   0.589   1.217  0.00  0.00    +0.000 HD
ATOM     22  H   UNL     1      -5.529   2.071   1.336  0.00  0.00    +0.000 HD
ENDBRANCH  18  19
BRANCH  18  23
ATOM     23  C   UNL     1      -4.254   1.973  -0.983  0.00  0.00    +0.000 C 
BRANCH  23  24
ATOM     24  C   UNL     1      -5.550   2.776  -1.115  0.00  0.00    +0.000 C 
BRANCH  24  25
ATOM     25  C   UNL     1      -6.117   2.591  -2.499  0.00  0.00    +0.000 C 
ATOM     26  O   UNL     1      -5.544   1.888  -3.297  0.00  0.00    +0.000 OA
ATOM     27  O   UNL     1      -7.259   3.206  -2.844  0.00  0.00    +0.000 OA
ENDBRANCH  24  25
ENDBRANCH  23  24
ENDBRANCH  18  23
ENDBRANCH   2  18
TORSDOF 11
ENDMDL
MODEL      879
REMARK  Name = ZINC27270879
REMARK  12 active torsions:
REMARK  status: ('A' for Active; 'I' for Inactive)
REMARK    1  A    between atoms: C_1  and  C_2
REMARK    2  A    between atoms: C_2  and  C_3
REMARK    3  A    between atoms: C_3  and  N_4
REMARK    4  A    between atoms: N_4  and  C_5
REMARK    5  A    between atoms: N_4  and  C_8
REMARK    6  A    between atoms: C_5  and  C_6
REMARK    7  A    between atoms: C_6  and  C_7
REMARK    8  A    between atoms: C_8  and  C_9
REMARK    9  A    between atoms: N_11  and  N_12
REMARK   10  A    between atoms: C_15  and  C_19
REMARK   11  A    between atoms: C_15  and  C_21
REMARK   12  A    between atoms: C_19  and  C_20
REMARK                            x       y       z     vdW  Elec       q    Type
REMARK                         _______ _______ _______ _____ _____    ______ ____
ROOT
ATOM      1  N   UNL     1       2.204   1.224   6.554  0.00  0.00    +0.000 N 
ATOM      2  C   UNL     1       3.254   1.973   6.944  0.00  0.00    +0.000 C 
ATOM      3  O   UNL     1       3.497   3.117   6.622  0.00  0.00    +0.000 OA
ATOM      4  C   UNL     1       4.068   1.089   7.868  0.00  0.00    +0.000 C 
ATOM      5  N   UNL     1       3.311  -0.174   7.894  0.00  0.00    +0.000 NA
ATOM      6  C   UNL     1       2.238   0.003   7.102  0.00  0.00    +0.000 C 
ATOM      7  O   UNL     1       1.396  -0.850   6.904  0.00  0.00    +0.000 OA
ENDROOT
BRANCH   4   8
ATOM      8  C   UNL     1       5.450   0.868   7.308  0.00  0.00    +0.000 A 
ATOM      9  C   UNL     1       6.477   1.731   7.642  0.00  0.00    +0.000 A 
ATOM     10  C   UNL     1       7.745   1.526   7.132  0.00  0.00    +0.000 A 
ATOM     11  C   UNL     1       7.985   0.463   6.282  0.00  0.00    +0.000 A 
ATOM     12  C   UNL     1       6.957  -0.398   5.945  0.00  0.00    +0.000 A 
ATOM     13  C   UNL     1       5.689  -0.195   6.457  0.00  0.00    +0.000 A 
ENDBRANCH   4   8
BRANCH   1  16
ATOM     14  C   UNL     1       1.170   1.241   4.410  0.00  0.00    +0.000 C 
ATOM     15  O   UNL     1       2.017   0.470   4.010  0.00  0.00    +0.000 OA
ATOM     16  N   UNL     1       1.197   1.669   5.687  0.00  0.00    +0.000 N 
ATOM     17  H   UNL     1       0.478   2.324   6.027  0.00  0.00    +0.000 HD
BRANCH  14  18
ATOM     18  C   UNL     1       0.087   1.720   3.477  0.00  0.00    +0.000 C 
BRANCH  18  19
ATOM     19  N   UNL     1       0.352   1.220   2.122  0.00  0.00    +0.000 N 
ATOM     20  H   UNL     1       0.656   0.239   2.200  0.00  0.00    +0.000 HD
BRANCH  19  21
ATOM     21  C   UNL     1      -0.866   1.252   1.301  0.00  0.00    +0.000 C 
BRANCH  21  22
ATOM     22  C   UNL     1      -1.839   0.178   1.791  0.00  0.00    +0.000 C 
ATOM     23  C   UNL     1      -3.051   0.124   0.858  0.00  0.00    +0.000 C 
ENDBRANCH  21  22
ENDBRANCH  19  21
BRANCH  19  24
ATOM     24  C   UNL     1       1.437   1.979   1.484  0.00  0.00    +0.000 C 
BRANCH  24  26
ATOM     25  C   UNL     1       2.982   2.071  -0.478  0.00  0.00    +0.000 C 
ATOM     26  C   UNL     1       1.852   1.282   0.187  0.00  0.00    +0.000 C 
ENDBRANCH  24  26
ENDBRANCH  19  24
ENDBRANCH  18  19
ENDBRANCH  14  18
ENDBRANCH   1  16
BRANCH   4  27
ATOM     27  C   UNL     1       4.147   1.703   9.267  0.00  0.00    +0.000 C 
ATOM     28  C   UNL     1       2.747   1.753   9.882  0.00  0.00    +0.000 C 
ENDBRANCH   4  27
TORSDOF 9
ENDMDL
MODEL      880
REMARK  Name = ZINC05734855
REMARK  11 active torsions:
REMARK  status: ('A' for Active; 'I' for Inactive)
REMARK    1  A    between atoms: C_1  and  C_2
REMARK    2  A    between atoms: C_2  and  C_3
REMARK    3  A    between atoms: C_3  and  C_4
REMARK    4  A    between atoms: C_4  and  C_5
REMARK    5  A    between atoms: C_5  and  C_6
REMARK    6  A    between atoms: C_6  and  N_7
REMARK    7  A    between atoms: C_9  and  C_15
REMARK    8  A    between atoms: N_16  and  C_17
REMARK    9  A    between atoms: C_17  and  C_18
REMARK   10  A    between atoms: C_18  and  C_19
REMARK   11  A    between atoms: C_19  and  N_20
REMARK                            x       y       z     vdW  Elec       q    Type
REMARK                         _______ _______ _______ _____ _____    ______ ____
ROOT
ATOM      1  N   UNL     1      -2.459  -2.809   0.010  0.00  0.00    +0.000 N 
ATOM      2  C   UNL     1      -1.263  -2.150   0.003  0.00  0.00    +0.000 A 
ATOM      3  C   UNL     1      -1.258  -0.754   0.010  0.00  0.00    +0.000 A 
ATOM      4  C   UNL     1      -2.550  -0.061   0.032  0.00  0.00    +0.000 A 
ATOM      5  O   UNL     1      -2.602   1.155   0.044  0.00  0.00    +0.000 OA
ATOM      6  N   UNL     1      -3.680  -0.798   0.032  0.00  0.00    +0.000 N 
ATOM      7  C   UNL     1      -3.624  -2.140   0.025  0.00  0.00    +0.000 A 
ATOM      8  O   UNL     1      -4.662  -2.772   0.032  0.00  0.00    +0.000 OA
ATOM      9  O   UNL     1      -0.105  -2.837  -0.012  0.00  0.00    +0.000 OA
ATOM     10  H   UNL     1      -4.595  -0.327   0.038  0.00  0.00    +0.000 HD
ENDROOT
BRANCH   3  11
ATOM     11  C   UNL     1       0.002  -0.004   0.002  0.00  0.00    +0.000 C 
ATOM     12  N   UNL     1      -0.015   1.294   0.009  0.00  0.00    +0.000 NA
BRANCH  12  13
ATOM     13  C   UNL     1       1.243   2.044   0.001  0.00  0.00    +0.000 C 
BRANCH  13  14
ATOM     14  C   UNL     1       1.357   2.835  -1.303  0.00  0.00    +0.000 C 
BRANCH  14  15
ATOM     15  C   UNL     1       2.671   3.618  -1.311  0.00  0.00    +0.000 C 
BRANCH  15  16
ATOM     16  N   UNL     1       2.780   4.376  -2.560  0.00  0.00    +0.000 N 
ATOM     17  C   UNL     1       2.335   5.627  -2.751  0.00  0.00    +0.000 A 
ATOM     18  C   UNL     1       2.616   5.981  -4.019  0.00  0.00    +0.000 A 
ATOM     19  N   UNL     1       3.245   4.912  -4.598  0.00  0.00    +0.000 N 
ATOM     20  C   UNL     1       3.331   3.943  -3.661  0.00  0.00    +0.000 A 
ATOM     21  H   UNL     1       3.588   4.857  -5.568  0.00  0.00    +0.000 HD
ENDBRANCH  15  16
ENDBRANCH  14  15
ENDBRANCH  13  14
ENDBRANCH  12  13
ENDBRANCH   3  11
BRANCH   1  22
ATOM     22  C   UNL     1      -2.472  -4.274   0.002  0.00  0.00    +0.000 C 
BRANCH  22  23
ATOM     23  C   UNL     1      -2.463  -4.792   1.442  0.00  0.00    +0.000 C 
BRANCH  23  24
ATOM     24  C   UNL     1      -2.477  -6.322   1.433  0.00  0.00    +0.000 C 
BRANCH  24  25
ATOM     25  C   UNL     1      -2.467  -6.840   2.873  0.00  0.00    +0.000 C 
BRANCH  25  27
ATOM     26  C   UNL     1      -2.471  -8.888   4.304  0.00  0.00    +0.000 C 
ATOM     27  C   UNL     1      -2.481  -8.370   2.864  0.00  0.00    +0.000 C 
ENDBRANCH  25  27
ENDBRANCH  24  25
ENDBRANCH  23  24
ENDBRANCH  22  23
ENDBRANCH   1  22
TORSDOF 10
ENDMDL
MODEL      881
REMARK  Name = ZINC02019924
REMARK  16 active torsions:
REMARK  status: ('A' for Active; 'I' for Inactive)
REMARK    1  A    between atoms: C_1  and  C_2
REMARK    2  A    between atoms: C_3  and  O_23
REMARK    3  A    between atoms: C_4  and  C_21
REMARK    4  A    between atoms: C_5  and  C_8
REMARK    5  A    between atoms: C_8  and  O_9
REMARK    6  A    between atoms: O_9  and  C_10
REMARK    7  A    between atoms: C_10  and  C_12
REMARK    8  A    between atoms: C_12  and  C_13
REMARK    9  A    between atoms: C_13  and  C_14
REMARK   10  A    between atoms: C_14  and  O_16
REMARK   11  A    between atoms: O_16  and  C_17
REMARK   12  A    between atoms: C_17  and  C_18
REMARK   13  A    between atoms: C_18  and  N_24
REMARK   14  A    between atoms: C_19  and  N_24
REMARK   15  A    between atoms: C_20  and  N_24
REMARK   16  A    between atoms: C_21  and  O_22
REMARK                            x       y       z     vdW  Elec       q    Type
REMARK                         _______ _______ _______ _____ _____    ______ ____
ROOT
ATOM      1  O   UNL     1       4.147  -1.705  -0.051  0.00  0.00    +0.000 OA
ENDROOT
BRANCH   1   2
ATOM      2  C   UNL     1       4.362  -2.571   0.952  0.00  0.00    +0.000 C 
ATOM      3  O   UNL     1       3.916  -2.344   2.052  0.00  0.00    +0.000 OA
BRANCH   2   4
ATOM      4  C   UNL     1       5.160  -3.826   0.707  0.00  0.00    +0.000 C 
BRANCH   4   5
ATOM      5  C   UNL     1       5.255  -4.631   2.004  0.00  0.00    +0.000 C 
BRANCH   5   6
ATOM      6  C   UNL     1       6.053  -5.886   1.759  0.00  0.00    +0.000 C 
ATOM      7  O   UNL     1       6.500  -6.113   0.659  0.00  0.00    +0.000 OA
BRANCH   6   8
ATOM      8  O   UNL     1       6.268  -6.752   2.762  0.00  0.00    +0.000 OA
BRANCH   8   9
ATOM      9  C   UNL     1       7.045  -7.939   2.453  0.00  0.00    +0.000 C 
BRANCH   9  10
ATOM     10  C   UNL     1       7.183  -8.799   3.710  0.00  0.00    +0.000 C 
BRANCH  10  13
ATOM     11  C   UNL     1       5.421 -10.391   3.238  0.00  0.00    +0.000 C 
ATOM     12  C   UNL     1       5.861  -9.714   5.521  0.00  0.00    +0.000 C 
ATOM     13  N   UNL     1       5.842  -9.274   4.110  0.00  0.00    +0.000 N 
ATOM     14  H   UNL     1       5.170  -8.500   4.010  0.00  0.00    +0.000 HD
ENDBRANCH  10  13
ENDBRANCH   9  10
ENDBRANCH   8   9
ENDBRANCH   6   8
ENDBRANCH   5   6
ENDBRANCH   4   5
ENDBRANCH   2   4
ENDBRANCH   1   2
BRANCH   1  15
ATOM     15  C   UNL     1       3.370  -0.518   0.258  0.00  0.00    +0.000 C 
BRANCH  15  20
ATOM     16  C   UNL     1       2.946   2.606  -4.534  0.00  0.00    +0.000 C 
ATOM     17  C   UNL     1       3.040   1.803  -3.262  0.00  0.00    +0.000 A 
ATOM     18  C   UNL     1       2.436   2.274  -2.106  0.00  0.00    +0.000 A 
ATOM     19  C   UNL     1       2.530   1.522  -0.940  0.00  0.00    +0.000 A 
ATOM     20  C   UNL     1       3.234   0.329  -0.980  0.00  0.00    +0.000 A 
ATOM     21  C   UNL     1       3.805  -0.077  -2.172  0.00  0.00    +0.000 A 
ATOM     22  N   UNL     1       3.696   0.660  -3.260  0.00  0.00    +0.000 NA
BRANCH  18  23
ATOM     23  O   UNL     1       1.760   3.454  -2.113  0.00  0.00    +0.000 OA
ATOM     24  H   UNL     1       1.079   3.349  -2.824  0.00  0.00    +0.000 HD
ENDBRANCH  18  23
BRANCH  19  25
ATOM     25  C   UNL     1       1.889   1.997   0.339  0.00  0.00    +0.000 C 
BRANCH  25  26
ATOM     26  O   UNL     1       0.553   1.496   0.416  0.00  0.00    +0.000 OA
ATOM     27  H   UNL     1       0.569   0.507   0.403  0.00  0.00    +0.000 HD
ENDBRANCH  25  26
ENDBRANCH  19  25
ENDBRANCH  15  20
ENDBRANCH   1  15
TORSDOF 13
ENDMDL
MODEL      882
REMARK  Name = ZINC06086015
REMARK  13 active torsions:
REMARK  status: ('A' for Active; 'I' for Inactive)
REMARK    1  A    between atoms: C_1  and  C_2
REMARK    2  A    between atoms: C_2  and  O_3
REMARK    3  A    between atoms: O_3  and  C_4
REMARK    4  A    between atoms: C_4  and  C_6
REMARK    5  A    between atoms: C_7  and  C_23
REMARK    6  A    between atoms: C_8  and  C_12
REMARK    7  A    between atoms: C_10  and  C_11
REMARK    8  A    between atoms: C_12  and  C_14
REMARK    9  A    between atoms: C_14  and  N_24
REMARK   10  A    between atoms: C_15  and  C_16
REMARK   11  A    between atoms: C_15  and  N_24
REMARK   12  A    between atoms: C_16  and  C_17
REMARK   13  A    between atoms: C_17  and  N_25
REMARK                            x       y       z     vdW  Elec       q    Type
REMARK                         _______ _______ _______ _____ _____    ______ ____
ROOT
ATOM      1  C   UNL     1      -0.718   1.572   1.248  0.00  0.00    +0.000 C 
ATOM      2  O   UNL     1      -1.716   2.257   1.150  0.00  0.00    +0.000 OA
ENDROOT
BRANCH   1   5
ATOM      3  C   UNL     1       0.055   1.046   4.743  0.00  0.00    +0.000 A 
ATOM      4  C   UNL     1      -0.759   1.609   3.736  0.00  0.00    +0.000 A 
ATOM      5  C   UNL     1      -0.218   1.230   2.527  0.00  0.00    +0.000 A 
ATOM      6  N   UNL     1       0.901   0.462   2.781  0.00  0.00    +0.000 N 
ATOM      7  C   UNL     1       1.068   0.350   4.107  0.00  0.00    +0.000 A 
ATOM      8  C   UNL     1       2.176  -0.409   4.792  0.00  0.00    +0.000 C 
ATOM      9  C   UNL     1      -1.985   2.460   3.944  0.00  0.00    +0.000 C 
ATOM     10  H   UNL     1       1.511   0.042   2.066  0.00  0.00    +0.000 HD
BRANCH   3  11
ATOM     11  C   UNL     1      -0.135   1.180   6.197  0.00  0.00    +0.000 C 
ATOM     12  O   UNL     1       0.383   2.103   6.795  0.00  0.00    +0.000 OA
BRANCH  11  13
ATOM     13  O   UNL     1      -0.882   0.279   6.865  0.00  0.00    +0.000 OA
BRANCH  13  15
ATOM     14  C   UNL     1      -1.902  -0.639   8.876  0.00  0.00    +0.000 C 
ATOM     15  C   UNL     1      -1.026   0.473   8.296  0.00  0.00    +0.000 C 
ENDBRANCH  13  15
ENDBRANCH  11  13
ENDBRANCH   3  11
ENDBRANCH   1   5
BRANCH   1  16
ATOM     16  C   UNL     1      -0.013   1.086   0.008  0.00  0.00    +0.000 C 
BRANCH  16  17
ATOM     17  N   UNL     1      -0.732   1.579  -1.182  0.00  0.00    +0.000 N 
ATOM     18  H   UNL     1      -1.699   1.225  -1.167  0.00  0.00    +0.000 HD
ATOM     19  H   UNL     1      -0.750   2.608  -1.169  0.00  0.00    +0.000 HD
BRANCH  17  20
ATOM     20  C   UNL     1      -0.062   1.117  -2.413  0.00  0.00    +0.000 C 
BRANCH  20  21
ATOM     21  C   UNL     1      -0.829   1.643  -3.628  0.00  0.00    +0.000 C 
BRANCH  21  22
ATOM     22  C   UNL     1      -0.141   1.168  -4.909  0.00  0.00    +0.000 C 
BRANCH  22  28
ATOM     23  C   UNL     1      -2.214   1.065  -6.159  0.00  0.00    +0.000 C 
ATOM     24  C   UNL     1      -2.967   1.661  -7.351  0.00  0.00    +0.000 C 
ATOM     25  O   UNL     1      -2.203   1.455  -8.542  0.00  0.00    +0.000 OA
ATOM     26  C   UNL     1      -0.896   2.034  -8.496  0.00  0.00    +0.000 C 
ATOM     27  C   UNL     1      -0.122   1.442  -7.316  0.00  0.00    +0.000 C 
ATOM     28  N   UNL     1      -0.882   1.700  -6.074  0.00  0.00    +0.000 NA
ENDBRANCH  22  28
ENDBRANCH  21  22
ENDBRANCH  20  21
ENDBRANCH  17  20
ENDBRANCH  16  17
ENDBRANCH   1  16
TORSDOF 10
ENDMDL
MODEL      883
REMARK  Name = ZINC29839654
REMARK  14 active torsions:
REMARK  status: ('A' for Active; 'I' for Inactive)
REMARK    1  A    between atoms: C_1  and  C_2
REMARK    2  A    between atoms: C_2  and  N_3
REMARK    3  A    between atoms: N_3  and  C_4
REMARK    4  A    between atoms: N_3  and  C_7
REMARK    5  A    between atoms: C_4  and  C_5
REMARK    6  A    between atoms: C_5  and  O_6
REMARK    7  A    between atoms: C_7  and  C_8
REMARK    8  A    between atoms: N_13  and  C_14
REMARK    9  A    between atoms: C_17  and  O_23
REMARK   10  A    between atoms: C_18  and  O_20
REMARK   11  A    between atoms: O_20  and  C_21
REMARK   12  A    between atoms: C_21  and  C_22
REMARK   13  A    between atoms: O_23  and  C_24
REMARK   14  A    between atoms: C_24  and  C_25
REMARK                            x       y       z     vdW  Elec       q    Type
REMARK                         _______ _______ _______ _____ _____    ______ ____
ROOT
ATOM      1  C   UNL     1       5.166  -1.778   6.112  0.00  0.00    +0.000 C 
ATOM      2  O   UNL     1       4.779  -1.268   7.141  0.00  0.00    +0.000 OA
ATOM      3  N   UNL     1       4.572  -1.468   4.942  0.00  0.00    +0.000 N 
ATOM      4  C   UNL     1       3.550  -0.591   4.917  0.00  0.00    +0.000 C 
ATOM      5  O   UNL     1       3.162  -0.079   5.949  0.00  0.00    +0.000 OA
ATOM      6  N   UNL     1       2.956  -0.281   3.747  0.00  0.00    +0.000 N 
ATOM      7  H   UNL     1       4.901  -1.902   4.067  0.00  0.00    +0.000 HD
ATOM      8  H   UNL     1       3.229  -0.773   2.885  0.00  0.00    +0.000 HD
ENDROOT
BRANCH   6   9
ATOM      9  C   UNL     1       1.968   0.712   3.704  0.00  0.00    +0.000 A 
ATOM     10  C   UNL     1       1.085   0.859   4.766  0.00  0.00    +0.000 A 
ATOM     11  C   UNL     1       0.111   1.838   4.725  0.00  0.00    +0.000 A 
ATOM     12  C   UNL     1       0.016   2.679   3.628  0.00  0.00    +0.000 A 
ATOM     13  C   UNL     1       0.896   2.530   2.560  0.00  0.00    +0.000 A 
ATOM     14  C   UNL     1       1.873   1.549   2.601  0.00  0.00    +0.000 A 
BRANCH  13  15
ATOM     15  O   UNL     1       0.800   3.351   1.480  0.00  0.00    +0.000 OA
BRANCH  15  16
ATOM     16  C   UNL     1       1.740   3.145   0.423  0.00  0.00    +0.000 C 
ATOM     17  C   UNL     1       1.478   4.154  -0.696  0.00  0.00    +0.000 C 
ENDBRANCH  15  16
ENDBRANCH  13  15
BRANCH  12  18
ATOM     18  O   UNL     1      -0.940   3.646   3.592  0.00  0.00    +0.000 OA
BRANCH  18  19
ATOM     19  C   UNL     1      -1.809   3.741   4.723  0.00  0.00    +0.000 C 
ATOM     20  C   UNL     1      -2.810   4.877   4.502  0.00  0.00    +0.000 C 
ENDBRANCH  18  19
ENDBRANCH  12  18
ENDBRANCH   6   9
BRANCH   1  21
ATOM     21  C   UNL     1       6.309  -2.759   6.139  0.00  0.00    +0.000 C 
BRANCH  21  22
ATOM     22  N   UNL     1       6.691  -3.027   7.533  0.00  0.00    +0.000 N 
ATOM     23  H   UNL     1       6.681  -2.131   8.041  0.00  0.00    +0.000 HD
BRANCH  22  25
ATOM     24  C   UNL     1       9.067  -2.451   7.393  0.00  0.00    +0.000 C 
ATOM     25  C   UNL     1       8.052  -3.575   7.609  0.00  0.00    +0.000 C 
ENDBRANCH  22  25
BRANCH  22  26
ATOM     26  C   UNL     1       5.725  -3.924   8.181  0.00  0.00    +0.000 C 
BRANCH  26  27
ATOM     27  C   UNL     1       6.010  -3.981   9.683  0.00  0.00    +0.000 C 
BRANCH  27  28
ATOM     28  O   UNL     1       5.778  -2.695  10.261  0.00  0.00    +0.000 OA
ATOM     29  H   UNL     1       4.835  -2.431  10.114  0.00  0.00    +0.000 HD
ENDBRANCH  27  28
ENDBRANCH  26  27
ENDBRANCH  22  26
ENDBRANCH  21  22
ENDBRANCH   1  21
TORSDOF 11
ENDMDL
MODEL      884
REMARK  Name = ZINC14158694
REMARK  13 active torsions:
REMARK  status: ('A' for Active; 'I' for Inactive)
REMARK    1  A    between atoms: C_1  and  C_2
REMARK    2  A    between atoms: C_4  and  C_24
REMARK    3  A    between atoms: N_10  and  C_11
REMARK    4  A    between atoms: C_11  and  N_13
REMARK    5  A    between atoms: N_13  and  C_14
REMARK    6  A    between atoms: C_14  and  C_15
REMARK    7  A    between atoms: C_15  and  O_16
REMARK    8  A    between atoms: O_16  and  C_17
REMARK    9  A    between atoms: N_18  and  C_19
REMARK   10  A    between atoms: C_19  and  C_20
REMARK   11  A    between atoms: C_20  and  C_21
REMARK   12  A    between atoms: C_21  and  O_22
REMARK   13  A    between atoms: O_22  and  C_23
REMARK                            x       y       z     vdW  Elec       q    Type
REMARK                         _______ _______ _______ _____ _____    ______ ____
ROOT
ATOM      1  C   UNL     1      -2.099   5.392  -0.086  0.00  0.00    +0.000 C 
ATOM      2  C   UNL     1      -2.210   3.889  -0.065  0.00  0.00    +0.000 A 
ATOM      3  C   UNL     1      -3.453   3.277  -0.073  0.00  0.00    +0.000 A 
ATOM      4  C   UNL     1      -3.510   1.893  -0.054  0.00  0.00    +0.000 A 
ATOM      5  N   UNL     1      -2.383   1.201  -0.030  0.00  0.00    +0.000 NA
ATOM      6  C   UNL     1      -1.211   1.817  -0.023  0.00  0.00    +0.000 A 
ATOM      7  N   UNL     1      -1.121   3.138  -0.035  0.00  0.00    +0.000 NA
ATOM      8  N   UNL     1      -0.048   1.059   0.003  0.00  0.00    +0.000 N 
ATOM      9  C   UNL     1       1.173   1.679   0.005  0.00  0.00    +0.000 C 
ATOM     10  N   UNL     1       1.244   2.999  -0.013  0.00  0.00    +0.000 NA
ATOM     11  N   UNL     1       2.317   0.934   0.025  0.00  0.00    +0.000 N 
ATOM     12  C   UNL     1      -4.840   1.184  -0.063  0.00  0.00    +0.000 C 
ATOM     13  H   UNL     1      -0.103   0.031   0.021  0.00  0.00    +0.000 HD
ATOM     14  H   UNL     1       3.232   1.398   0.113  0.00  0.00    +0.000 HD
ENDROOT
BRANCH  10  15
ATOM     15  C   UNL     1       2.436   3.607   0.066  0.00  0.00    +0.000 C 
ATOM     16  S   UNL     1       3.579   3.418  -1.195  0.00  0.00    +0.000 S 
BRANCH  15  17
ATOM     17  N   UNL     1       2.736   4.368   1.137  0.00  0.00    +0.000 N 
ATOM     18  H   UNL     1       2.048   4.482   1.896  0.00  0.00    +0.000 HD
BRANCH  17  19
ATOM     19  C   UNL     1       4.038   5.032   1.223  0.00  0.00    +0.000 C 
BRANCH  19  20
ATOM     20  C   UNL     1       4.121   5.826   2.529  0.00  0.00    +0.000 C 
BRANCH  20  21
ATOM     21  O   UNL     1       4.082   4.925   3.637  0.00  0.00    +0.000 OA
ATOM     22  C   UNL     1       4.154   5.568   4.911  0.00  0.00    +0.000 C 
ENDBRANCH  20  21
ENDBRANCH  19  20
ENDBRANCH  17  19
ENDBRANCH  15  17
ENDBRANCH  10  15
BRANCH  11  23
ATOM     23  C   UNL     1       2.242  -0.525  -0.080  0.00  0.00    +0.000 C 
BRANCH  23  24
ATOM     24  C   UNL     1       3.654  -1.113  -0.032  0.00  0.00    +0.000 C 
BRANCH  24  25
ATOM     25  C   UNL     1       3.576  -2.637  -0.141  0.00  0.00    +0.000 C 
BRANCH  25  26
ATOM     26  O   UNL     1       4.895  -3.185  -0.097  0.00  0.00    +0.000 OA
ATOM     27  C   UNL     1       4.935  -4.610  -0.192  0.00  0.00    +0.000 C 
ENDBRANCH  25  26
ENDBRANCH  24  25
ENDBRANCH  23  24
ENDBRANCH  11  23
TORSDOF 9
ENDMDL
MODEL      885
REMARK  Name = ZINC10384127
REMARK  11 active torsions:
REMARK  status: ('A' for Active; 'I' for Inactive)
REMARK    1  A    between atoms: C_4  and  C_7
REMARK    2  A    between atoms: C_7  and  N_8
REMARK    3  A    between atoms: C_9  and  C_11
REMARK    4  A    between atoms: C_11  and  C_12
REMARK    5  A    between atoms: C_12  and  C_13
REMARK    6  A    between atoms: C_12  and  N_26
REMARK    7  A    between atoms: C_15  and  C_16
REMARK    8  A    between atoms: C_15  and  N_26
REMARK    9  A    between atoms: C_16  and  O_17
REMARK   10  A    between atoms: C_18  and  C_19
REMARK   11  A    between atoms: C_18  and  N_26
REMARK                            x       y       z     vdW  Elec       q    Type
REMARK                         _______ _______ _______ _____ _____    ______ ____
ROOT
ATOM      1  C   UNL     1       1.084   2.141  -0.126  0.00  0.00    +0.000 C 
ENDROOT
BRANCH   1   2
ATOM      2  C   UNL     1      -0.202   1.373   0.035  0.00  0.00    +0.000 C 
ATOM      3  O   UNL     1      -1.256   1.962   0.083  0.00  0.00    +0.000 OA
ATOM      4  O   UNL     1      -0.178   0.034   0.119  0.00  0.00    +0.000 OA
ENDBRANCH   1   2
BRANCH   1   5
ATOM      5  N   UNL     1       0.774   3.586  -0.171  0.00  0.00    +0.000 N 
ATOM      6  H   UNL     1       0.178   3.825   0.634  0.00  0.00    +0.000 HD
BRANCH   5   7
ATOM      7  C   UNL     1       0.050   3.908  -1.419  0.00  0.00    +0.000 C 
BRANCH   7   8
ATOM      8  C   UNL     1      -0.387   5.350  -1.370  0.00  0.00    +0.000 A 
ATOM      9  C   UNL     1      -1.553   5.697  -0.713  0.00  0.00    +0.000 A 
ATOM     10  C   UNL     1      -1.951   7.020  -0.664  0.00  0.00    +0.000 A 
ATOM     11  C   UNL     1      -1.188   7.994  -1.280  0.00  0.00    +0.000 A 
ATOM     12  C   UNL     1      -0.025   7.646  -1.941  0.00  0.00    +0.000 A 
ATOM     13  C   UNL     1       0.376   6.324  -1.986  0.00  0.00    +0.000 A 
ENDBRANCH   7   8
ENDBRANCH   5   7
BRANCH   5  14
ATOM     14  C   UNL     1       2.023   4.373  -0.094  0.00  0.00    +0.000 C 
BRANCH  14  15
ATOM     15  C   UNL     1       3.025   3.893  -1.145  0.00  0.00    +0.000 C 
BRANCH  15  16
ATOM     16  O   UNL     1       2.541   4.219  -2.449  0.00  0.00    +0.000 OA
ATOM     17  H   UNL     1       2.429   5.200  -2.525  0.00  0.00    +0.000 HD
ENDBRANCH  15  16
ENDBRANCH  14  15
ENDBRANCH   5  14
ENDBRANCH   1   5
BRANCH   1  18
ATOM     18  C   UNL     1       1.998   1.863   1.070  0.00  0.00    +0.000 C 
BRANCH  18  20
ATOM     19  N   UNL     1       1.990   2.282   3.507  0.00  0.00    +0.000 N 
ATOM     20  C   UNL     1       1.331   2.342   2.333  0.00  0.00    +0.000 C 
ATOM     21  O   UNL     1       0.201   2.780   2.294  0.00  0.00    +0.000 OA
ATOM     22  H   UNL     1       2.949   1.909   3.541  0.00  0.00    +0.000 HD
BRANCH  19  23
ATOM     23  C   UNL     1       1.341   2.747   4.736  0.00  0.00    +0.000 C 
BRANCH  23  27
ATOM     24  C   UNL     1       4.014   2.255   8.032  0.00  0.00    +0.000 A 
ATOM     25  C   UNL     1       4.016   3.434   7.311  0.00  0.00    +0.000 A 
ATOM     26  C   UNL     1       3.151   3.594   6.244  0.00  0.00    +0.000 A 
ATOM     27  C   UNL     1       2.284   2.573   5.899  0.00  0.00    +0.000 A 
ATOM     28  C   UNL     1       2.279   1.396   6.623  0.00  0.00    +0.000 A 
ATOM     29  C   UNL     1       3.148   1.235   7.686  0.00  0.00    +0.000 A 
ENDBRANCH  23  27
ENDBRANCH  19  23
ENDBRANCH  18  20
ENDBRANCH   1  18
TORSDOF 11
ENDMDL
MODEL      886
REMARK  Name = ZINC20437634
REMARK  13 active torsions:
REMARK  status: ('A' for Active; 'I' for Inactive)
REMARK    1  A    between atoms: C_1  and  C_2
REMARK    2  A    between atoms: C_2  and  C_3
REMARK    3  A    between atoms: C_3  and  C_4
REMARK    4  A    between atoms: C_4  and  N_5
REMARK    5  A    between atoms: C_9  and  N_10
REMARK    6  A    between atoms: N_10  and  N_11
REMARK    7  A    between atoms: N_11  and  C_12
REMARK    8  A    between atoms: C_12  and  C_13
REMARK    9  A    between atoms: C_13  and  N_14
REMARK   10  A    between atoms: N_14  and  C_15
REMARK   11  A    between atoms: N_14  and  C_17
REMARK   12  A    between atoms: C_15  and  C_16
REMARK   13  A    between atoms: C_17  and  C_18
REMARK                            x       y       z     vdW  Elec       q    Type
REMARK                         _______ _______ _______ _____ _____    ______ ____
ROOT
ATOM      1  N   UNL     1       0.126   9.484  -5.960  0.00  0.00    +0.000 N 
ATOM      2  C   UNL     1      -0.049   8.147  -5.934  0.00  0.00    +0.000 C 
ATOM      3  O   UNL     1      -0.245   7.522  -6.959  0.00  0.00    +0.000 OA
ATOM      4  C   UNL     1      -0.004   7.464  -4.628  0.00  0.00    +0.000 C 
ATOM      5  C   UNL     1      -0.181   6.098  -4.523  0.00  0.00    +0.000 C 
ATOM      6  C   UNL     1       0.245   8.302  -3.441  0.00  0.00    +0.000 C 
ATOM      7  O   UNL     1       0.302   7.810  -2.330  0.00  0.00    +0.000 OA
ATOM      8  N   UNL     1       0.408   9.629  -3.620  0.00  0.00    +0.000 NA
ATOM      9  C   UNL     1       0.349  10.184  -4.839  0.00  0.00    +0.000 C 
ATOM     10  S   UNL     1       0.567  11.877  -4.970  0.00  0.00    +0.000 S 
ENDROOT
BRANCH   5  11
ATOM     11  N   UNL     1      -0.256   5.520  -3.307  0.00  0.00    +0.000 N 
ATOM     12  H   UNL     1      -0.259   6.104  -2.458  0.00  0.00    +0.000 HD
BRANCH  11  13
ATOM     13  N   UNL     1      -0.329   4.160  -3.200  0.00  0.00    +0.000 NA
ATOM     14  H   UNL     1      -1.166   3.825  -3.698  0.00  0.00    +0.000 HD
BRANCH  13  15
ATOM     15  C   UNL     1      -0.403   3.745  -1.793  0.00  0.00    +0.000 C 
BRANCH  15  16
ATOM     16  C   UNL     1      -0.483   2.219  -1.714  0.00  0.00    +0.000 C 
BRANCH  16  17
ATOM     17  N   UNL     1      -0.555   1.804  -0.307  0.00  0.00    +0.000 N 
ATOM     18  H   UNL     1      -1.252   2.399   0.163  0.00  0.00    +0.000 HD
BRANCH  17  19
ATOM     19  C   UNL     1       0.735   2.003   0.367  0.00  0.00    +0.000 C 
ATOM     20  C   UNL     1       1.793   1.109  -0.283  0.00  0.00    +0.000 C 
ENDBRANCH  17  19
BRANCH  17  21
ATOM     21  C   UNL     1      -1.000   0.409  -0.191  0.00  0.00    +0.000 C 
ATOM     22  C   UNL     1      -1.302   0.090   1.274  0.00  0.00    +0.000 C 
ENDBRANCH  17  21
ENDBRANCH  16  17
ENDBRANCH  15  16
ENDBRANCH  13  15
ENDBRANCH  11  13
ENDBRANCH   5  11
BRANCH   1  23
ATOM     23  C   UNL     1       0.079  10.187  -7.245  0.00  0.00    +0.000 C 
BRANCH  23  24
ATOM     24  C   UNL     1       1.483  10.236  -7.851  0.00  0.00    +0.000 C 
BRANCH  24  26
ATOM     25  C   UNL     1       2.837  11.019  -9.800  0.00  0.00    +0.000 C 
ATOM     26  C   UNL     1       1.433  10.970  -9.193  0.00  0.00    +0.000 C 
ENDBRANCH  24  26
ENDBRANCH  23  24
ENDBRANCH   1  23
TORSDOF 10
ENDMDL
MODEL      887
REMARK  Name = ZINC26449470
REMARK  12 active torsions:
REMARK  status: ('A' for Active; 'I' for Inactive)
REMARK    1  A    between atoms: C_1  and  O_2
REMARK    2  A    between atoms: O_2  and  C_3
REMARK    3  A    between atoms: C_3  and  C_4
REMARK    4  A    between atoms: C_4  and  N_5
REMARK    5  A    between atoms: N_5  and  C_6
REMARK    6  A    between atoms: N_5  and  C_19
REMARK    7  A    between atoms: C_6  and  C_7
REMARK    8  A    between atoms: C_7  and  O_8
REMARK    9  A    between atoms: O_8  and  C_9
REMARK   10  A    between atoms: C_12  and  S_15
REMARK   11  A    between atoms: S_15  and  N_18
REMARK   12  A    between atoms: C_19  and  C_20
REMARK                            x       y       z     vdW  Elec       q    Type
REMARK                         _______ _______ _______ _____ _____    ______ ____
ROOT
ATOM      1  C   UNL     1       2.468   4.176  -0.082  0.00  0.00    +0.000 C 
ENDROOT
BRANCH   1   2
ATOM      2  C   UNL     1       2.143   5.671  -0.041  0.00  0.00    +0.000 C 
BRANCH   2   3
ATOM      3  N   UNL     1       1.454   5.988   1.216  0.00  0.00    +0.000 N 
ATOM      4  H   UNL     1       2.022   5.616   1.991  0.00  0.00    +0.000 HD
BRANCH   3   5
ATOM      5  C   UNL     1       0.136   5.341   1.272  0.00  0.00    +0.000 C 
BRANCH   5   6
ATOM      6  C   UNL     1      -0.739   5.867   0.133  0.00  0.00    +0.000 C 
BRANCH   6   8
ATOM      7  C   UNL     1      -0.926   5.897  -2.257  0.00  0.00    +0.000 C 
ATOM      8  O   UNL     1      -0.245   5.374  -1.114  0.00  0.00    +0.000 OA
ENDBRANCH   6   8
ENDBRANCH   5   6
ENDBRANCH   3   5
BRANCH   3   9
ATOM      9  C   UNL     1       1.335   7.440   1.400  0.00  0.00    +0.000 C 
BRANCH   9  10
ATOM     10  C   UNL     1       0.966   7.737   2.831  0.00  0.00    +0.000 A 
ATOM     11  C   UNL     1       1.828   8.034   3.820  0.00  0.00    +0.000 A 
ATOM     12  C   UNL     1       1.057   8.238   4.988  0.00  0.00    +0.000 A 
ATOM     13  C   UNL     1      -0.230   8.053   4.642  0.00  0.00    +0.000 A 
ATOM     14  O   UNL     1      -0.279   7.756   3.333  0.00  0.00    +0.000 OA
ENDBRANCH   9  10
ENDBRANCH   3   9
ENDBRANCH   2   3
ENDBRANCH   1   2
BRANCH   1  15
ATOM     15  O   UNL     1       1.256   3.429  -0.204  0.00  0.00    +0.000 OA
BRANCH  15  16
ATOM     16  C   UNL     1       1.367   2.075  -0.255  0.00  0.00    +0.000 A 
ATOM     17  C   UNL     1       0.231   1.288  -0.373  0.00  0.00    +0.000 A 
ATOM     18  C   UNL     1       0.348  -0.087  -0.425  0.00  0.00    +0.000 A 
ATOM     19  C   UNL     1       1.595  -0.680  -0.359  0.00  0.00    +0.000 A 
ATOM     20  C   UNL     1       2.729   0.103  -0.241  0.00  0.00    +0.000 A 
ATOM     21  C   UNL     1       2.618   1.479  -0.189  0.00  0.00    +0.000 A 
BRANCH  19  22
ATOM     22  S   UNL     1       1.741  -2.434  -0.425  0.00  0.00    +0.000 S 
ATOM     23  O   UNL     1       2.971  -2.764   0.204  0.00  0.00    +0.000 OA
ATOM     24  O   UNL     1       0.496  -2.962   0.013  0.00  0.00    +0.000 OA
BRANCH  22  25
ATOM     25  N   UNL     1       1.897  -2.853  -2.019  0.00  0.00    +0.000 NA
ATOM     26  H   UNL     1       2.806  -3.177  -2.380  0.00  0.00    +0.000 HD
ATOM     27  H   UNL     1       1.085  -2.791  -2.650  0.00  0.00    +0.000 HD
ENDBRANCH  22  25
ENDBRANCH  19  22
ENDBRANCH  15  16
ENDBRANCH   1  15
TORSDOF 11
ENDMDL
MODEL      888
REMARK  Name = ZINC29487461
REMARK  14 active torsions:
REMARK  status: ('A' for Active; 'I' for Inactive)
REMARK    1  A    between atoms: C_1  and  O_2
REMARK    2  A    between atoms: O_2  and  C_3
REMARK    3  A    between atoms: C_3  and  C_4
REMARK    4  A    between atoms: C_4  and  N_5
REMARK    5  A    between atoms: N_5  and  C_6
REMARK    6  A    between atoms: C_6  and  C_7
REMARK    7  A    between atoms: C_7  and  O_8
REMARK    8  A    between atoms: O_8  and  C_9
REMARK    9  A    between atoms: C_10  and  C_12
REMARK   10  A    between atoms: C_12  and  S_13
REMARK   11  A    between atoms: S_13  and  C_14
REMARK   12  A    between atoms: N_15  and  C_16
REMARK   13  A    between atoms: C_20  and  O_22
REMARK   14  A    between atoms: O_22  and  C_23
REMARK                            x       y       z     vdW  Elec       q    Type
REMARK                         _______ _______ _______ _____ _____    ______ ____
ROOT
ATOM      1  S   UNL     1      -1.231   3.390   0.160  0.00  0.00    +0.000 S 
ENDROOT
BRANCH   1   2
ATOM      2  C   UNL     1      -1.271   1.634   0.302  0.00  0.00    +0.000 C 
ATOM      3  N   UNL     1      -2.337   0.968  -0.081  0.00  0.00    +0.000 NA
ATOM      4  N   UNL     1      -0.187   0.961   0.812  0.00  0.00    +0.000 N 
ATOM      5  H   UNL     1       0.648   1.483   1.112  0.00  0.00    +0.000 HD
ATOM      6  H   UNL     1      -0.211  -0.065   0.895  0.00  0.00    +0.000 HD
BRANCH   3   7
ATOM      7  C   UNL     1      -2.323  -0.401  -0.088  0.00  0.00    +0.000 A 
ATOM      8  C   UNL     1      -1.329  -1.088  -0.790  0.00  0.00    +0.000 A 
ATOM      9  C   UNL     1      -1.318  -2.467  -0.795  0.00  0.00    +0.000 A 
ATOM     10  C   UNL     1      -2.288  -3.174  -0.107  0.00  0.00    +0.000 A 
ATOM     11  C   UNL     1      -3.279  -2.500   0.593  0.00  0.00    +0.000 A 
ATOM     12  C   UNL     1      -3.297  -1.115   0.609  0.00  0.00    +0.000 A 
BRANCH  11  13
ATOM     13  O   UNL     1      -4.229  -3.199   1.268  0.00  0.00    +0.000 OA
ATOM     14  C   UNL     1      -4.147  -4.625   1.213  0.00  0.00    +0.000 C 
ENDBRANCH  11  13
ENDBRANCH   3   7
ENDBRANCH   1   2
BRANCH   1  15
ATOM     15  C   UNL     1      -2.870   3.686  -0.547  0.00  0.00    +0.000 C 
BRANCH  15  17
ATOM     16  N   UNL     1      -4.221   5.623  -1.282  0.00  0.00    +0.000 N 
ATOM     17  C   UNL     1      -3.066   5.165  -0.761  0.00  0.00    +0.000 C 
ATOM     18  O   UNL     1      -2.183   5.942  -0.465  0.00  0.00    +0.000 OA
BRANCH  16  19
ATOM     19  C   UNL     1      -4.411   7.061  -1.490  0.00  0.00    +0.000 C 
BRANCH  19  20
ATOM     20  C   UNL     1      -3.926   7.442  -2.891  0.00  0.00    +0.000 C 
BRANCH  20  22
ATOM     21  C   UNL     1      -4.380   7.097  -5.219  0.00  0.00    +0.000 C 
ATOM     22  O   UNL     1      -4.750   6.806  -3.869  0.00  0.00    +0.000 OA
ENDBRANCH  20  22
ENDBRANCH  19  20
ENDBRANCH  16  19
BRANCH  16  23
ATOM     23  C   UNL     1      -5.287   4.684  -1.640  0.00  0.00    +0.000 C 
BRANCH  23  24
ATOM     24  C   UNL     1      -6.209   4.477  -0.437  0.00  0.00    +0.000 C 
BRANCH  24  25
ATOM     25  O   UNL     1      -6.874   5.704  -0.129  0.00  0.00    +0.000 OA
ATOM     26  C   UNL     1      -7.764   5.619   0.986  0.00  0.00    +0.000 C 
ENDBRANCH  24  25
ENDBRANCH  23  24
ENDBRANCH  16  23
ENDBRANCH  15  17
ENDBRANCH   1  15
TORSDOF 11
ENDMDL
MODEL      889
REMARK  Name = ZINC08944207
REMARK  13 active torsions:
REMARK  status: ('A' for Active; 'I' for Inactive)
REMARK    1  A    between atoms: C_1  and  C_2
REMARK    2  A    between atoms: C_2  and  O_3
REMARK    3  A    between atoms: O_3  and  C_4
REMARK    4  A    between atoms: N_6  and  C_7
REMARK    5  A    between atoms: C_7  and  C_8
REMARK    6  A    between atoms: C_8  and  N_9
REMARK    7  A    between atoms: C_14  and  N_20
REMARK    8  A    between atoms: C_16  and  S_18
REMARK    9  A    between atoms: S_18  and  C_19
REMARK   10  A    between atoms: N_20  and  C_21
REMARK   11  A    between atoms: C_21  and  C_22
REMARK   12  A    between atoms: C_22  and  O_23
REMARK   13  A    between atoms: O_23  and  C_24
REMARK                            x       y       z     vdW  Elec       q    Type
REMARK                         _______ _______ _______ _____ _____    ______ ____
ROOT
ATOM      1  N   UNL     1       1.314  -0.375  -0.013  0.00  0.00    +0.000 N 
ATOM      2  C   UNL     1       0.002  -0.004   0.002  0.00  0.00    +0.000 A 
ATOM      3  C   UNL     1      -0.017   1.404   0.010  0.00  0.00    +0.000 A 
ATOM      4  C   UNL     1       1.327   1.836  -0.001  0.00  0.00    +0.000 A 
ATOM      5  N   UNL     1       2.098   0.786  -0.014  0.00  0.00    +0.000 NA
ATOM      6  C   UNL     1      -1.265   2.058   0.030  0.00  0.00    +0.000 A 
ATOM      7  N   UNL     1      -2.367   1.318   0.033  0.00  0.00    +0.000 NA
ATOM      8  C   UNL     1      -2.304  -0.009   0.025  0.00  0.00    +0.000 A 
ATOM      9  N   UNL     1      -1.155  -0.664   0.010  0.00  0.00    +0.000 NA
ENDROOT
BRANCH   6  10
ATOM     10  N   UNL     1      -1.341   3.437   0.039  0.00  0.00    +0.000 N 
ATOM     11  H   UNL     1      -0.478   3.999   0.031  0.00  0.00    +0.000 HD
BRANCH  10  12
ATOM     12  C   UNL     1      -2.647   4.099   0.060  0.00  0.00    +0.000 C 
BRANCH  12  13
ATOM     13  C   UNL     1      -2.450   5.616   0.066  0.00  0.00    +0.000 C 
BRANCH  13  14
ATOM     14  O   UNL     1      -1.840   6.022  -1.161  0.00  0.00    +0.000 OA
ATOM     15  C   UNL     1      -1.611   7.429  -1.258  0.00  0.00    +0.000 C 
ENDBRANCH  13  14
ENDBRANCH  12  13
ENDBRANCH  10  12
ENDBRANCH   6  10
BRANCH   8  16
ATOM     16  S   UNL     1      -3.806  -0.930   0.035  0.00  0.00    +0.000 S 
ATOM     17  C   UNL     1      -5.006   0.425   0.054  0.00  0.00    +0.000 C 
ENDBRANCH   8  16
BRANCH   1  18
ATOM     18  C   UNL     1       1.817  -1.751  -0.024  0.00  0.00    +0.000 C 
BRANCH  18  19
ATOM     19  C   UNL     1       1.978  -2.222  -1.471  0.00  0.00    +0.000 C 
BRANCH  19  22
ATOM     20  C   UNL     1       2.702  -4.225  -2.655  0.00  0.00    +0.000 C 
ATOM     21  O   UNL     1       2.483  -3.649  -3.702  0.00  0.00    +0.000 OA
ATOM     22  N   UNL     1       2.482  -3.598  -1.482  0.00  0.00    +0.000 N 
ATOM     23  H   UNL     1       2.667  -4.086  -0.595  0.00  0.00    +0.000 HD
BRANCH  20  24
ATOM     24  O   UNL     1       3.164  -5.490  -2.666  0.00  0.00    +0.000 OA
BRANCH  24  26
ATOM     25  C   UNL     1       3.901  -7.528  -3.776  0.00  0.00    +0.000 C 
ATOM     26  C   UNL     1       3.378  -6.102  -3.965  0.00  0.00    +0.000 C 
ENDBRANCH  24  26
ENDBRANCH  20  24
ENDBRANCH  19  22
ENDBRANCH  18  19
ENDBRANCH   1  18
TORSDOF 10
ENDMDL
MODEL      890
REMARK  Name = ZINC23696717
REMARK  15 active torsions:
REMARK  status: ('A' for Active; 'I' for Inactive)
REMARK    1  A    between atoms: C_1  and  C_2
REMARK    2  A    between atoms: C_2  and  C_3
REMARK    3  A    between atoms: C_3  and  C_4
REMARK    4  A    between atoms: C_4  and  N_5
REMARK    5  A    between atoms: C_6  and  N_25
REMARK    6  A    between atoms: C_7  and  N_13
REMARK    7  A    between atoms: N_13  and  C_14
REMARK    8  A    between atoms: C_14  and  C_15
REMARK    9  A    between atoms: C_16  and  C_18
REMARK   10  A    between atoms: C_18  and  N_19
REMARK   11  A    between atoms: N_19  and  C_20
REMARK   12  A    between atoms: N_19  and  C_21
REMARK   13  A    between atoms: C_21  and  C_22
REMARK   14  A    between atoms: C_22  and  C_23
REMARK   15  A    between atoms: C_23  and  C_24
REMARK                            x       y       z     vdW  Elec       q    Type
REMARK                         _______ _______ _______ _____ _____    ______ ____
ROOT
ATOM      1  N   UNL     1      -0.261  -3.348   0.854  0.00  0.00    +0.000 N 
ATOM      2  C   UNL     1      -0.220  -4.048  -0.329  0.00  0.00    +0.000 A 
ATOM      3  C   UNL     1      -1.359  -4.127  -1.105  0.00  0.00    +0.000 A 
ATOM      4  C   UNL     1      -2.526  -3.475  -0.666  0.00  0.00    +0.000 A 
ATOM      5  O   UNL     1      -3.545  -3.524  -1.335  0.00  0.00    +0.000 OA
ATOM      6  N   UNL     1      -2.512  -2.798   0.498  0.00  0.00    +0.000 N 
ATOM      7  C   UNL     1      -1.395  -2.737   1.245  0.00  0.00    +0.000 A 
ATOM      8  O   UNL     1      -1.409  -2.119   2.292  0.00  0.00    +0.000 OA
ATOM      9  H   UNL     1      -3.366  -2.321   0.821  0.00  0.00    +0.000 HD
ENDROOT
BRANCH   2  10
ATOM     10  N   UNL     1       0.939  -4.668  -0.731  0.00  0.00    +0.000 N 
ATOM     11  H   UNL     1       1.782  -4.606  -0.141  0.00  0.00    +0.000 HD
ATOM     12  H   UNL     1       0.966  -5.191  -1.617  0.00  0.00    +0.000 HD
ENDBRANCH   2  10
BRANCH   3  13
ATOM     13  N   UNL     1      -1.350  -4.842  -2.321  0.00  0.00    +0.000 N 
ATOM     14  C   UNL     1      -1.510  -4.188  -3.490  0.00  0.00    +0.000 C 
ATOM     15  O   UNL     1      -1.571  -2.976  -3.504  0.00  0.00    +0.000 OA
BRANCH  13  16
ATOM     16  C   UNL     1      -1.167  -6.296  -2.314  0.00  0.00    +0.000 C 
ATOM     17  C   UNL     1      -2.535  -6.981  -2.349  0.00  0.00    +0.000 C 
ENDBRANCH  13  16
BRANCH  14  18
ATOM     18  C   UNL     1      -1.613  -4.962  -4.779  0.00  0.00    +0.000 C 
BRANCH  18  19
ATOM     19  N   UNL     1      -1.781  -4.027  -5.900  0.00  0.00    +0.000 N 
ATOM     20  C   UNL     1      -0.579  -3.202  -6.082  0.00  0.00    +0.000 C 
ATOM     21  H   UNL     1      -2.565  -3.398  -5.673  0.00  0.00    +0.000 HD
BRANCH  19  22
ATOM     22  C   UNL     1      -2.121  -4.743  -7.136  0.00  0.00    +0.000 C 
BRANCH  22  23
ATOM     23  C   UNL     1      -2.530  -3.736  -8.213  0.00  0.00    +0.000 C 
BRANCH  23  24
ATOM     24  C   UNL     1      -2.884  -4.482  -9.501  0.00  0.00    +0.000 C 
ATOM     25  C   UNL     1      -3.294  -3.475 -10.578  0.00  0.00    +0.000 C 
ENDBRANCH  23  24
ENDBRANCH  22  23
ENDBRANCH  19  22
ENDBRANCH  18  19
ENDBRANCH  14  18
ENDBRANCH   3  13
BRANCH   1  26
ATOM     26  C   UNL     1       0.938  -3.262   1.691  0.00  0.00    +0.000 C 
BRANCH  26  27
ATOM     27  C   UNL     1       0.952  -4.427   2.683  0.00  0.00    +0.000 C 
BRANCH  27  29
ATOM     28  C   UNL     1       2.219  -5.502   4.549  0.00  0.00    +0.000 C 
ATOM     29  C   UNL     1       2.205  -4.337   3.557  0.00  0.00    +0.000 C 
ENDBRANCH  27  29
ENDBRANCH  26  27
ENDBRANCH   1  26
TORSDOF 11
ENDMDL
MODEL      891
REMARK  Name = ZINC02861235
REMARK  13 active torsions:
REMARK  status: ('A' for Active; 'I' for Inactive)
REMARK    1  A    between atoms: C_1  and  C_2
REMARK    2  A    between atoms: C_2  and  C_3
REMARK    3  A    between atoms: C_3  and  O_4
REMARK    4  A    between atoms: O_4  and  C_5
REMARK    5  A    between atoms: C_8  and  C_11
REMARK    6  A    between atoms: C_11  and  C_12
REMARK    7  A    between atoms: C_11  and  O_24
REMARK    8  A    between atoms: C_12  and  C_13
REMARK    9  A    between atoms: C_13  and  N_25
REMARK   10  A    between atoms: C_14  and  C_15
REMARK   11  A    between atoms: C_14  and  C_18
REMARK   12  A    between atoms: C_14  and  N_25
REMARK   13  A    between atoms: C_15  and  C_16
REMARK                            x       y       z     vdW  Elec       q    Type
REMARK                         _______ _______ _______ _____ _____    ______ ____
ROOT
ATOM      1  C   UNL     1       1.985   5.051  -1.369  0.00  0.00    +0.000 C 
ENDROOT
BRANCH   1   2
ATOM      2  N   UNL     1       2.381   3.762  -0.770  0.00  0.00    +0.000 N 
ATOM      3  H   UNL     1       2.556   3.077  -1.519  0.00  0.00    +0.000 HD
ATOM      4  H   UNL     1       3.244   3.890  -0.222  0.00  0.00    +0.000 HD
BRANCH   2   5
ATOM      5  C   UNL     1       1.313   3.258   0.113  0.00  0.00    +0.000 C 
BRANCH   5   6
ATOM      6  C   UNL     1       1.381   1.753   0.162  0.00  0.00    +0.000 A 
ATOM      7  C   UNL     1       0.216   1.008   0.157  0.00  0.00    +0.000 A 
ATOM      8  C   UNL     1       0.279  -0.372   0.202  0.00  0.00    +0.000 A 
ATOM      9  C   UNL     1       1.505  -1.007   0.251  0.00  0.00    +0.000 A 
ATOM     10  C   UNL     1       2.670  -0.262   0.256  0.00  0.00    +0.000 A 
ATOM     11  C   UNL     1       2.607   1.118   0.211  0.00  0.00    +0.000 A 
ENDBRANCH   5   6
BRANCH   5  12
ATOM     12  C   UNL     1       1.505   3.824   1.521  0.00  0.00    +0.000 C 
BRANCH  12  13
ATOM     13  C   UNL     1       0.332   3.434   2.384  0.00  0.00    +0.000 C 
ATOM     14  O   UNL     1      -0.621   2.879   1.891  0.00  0.00    +0.000 OA
ATOM     15  O   UNL     1       0.347   3.705   3.698  0.00  0.00    +0.000 OA
ENDBRANCH  12  13
ENDBRANCH   5  12
ENDBRANCH   2   5
ENDBRANCH   1   2
BRANCH   1  16
ATOM     16  C   UNL     1       3.146   5.593  -2.205  0.00  0.00    +0.000 C 
BRANCH  16  17
ATOM     17  C   UNL     1       2.743   6.930  -2.831  0.00  0.00    +0.000 C 
BRANCH  17  21
ATOM     18  C   UNL     1       6.096   8.613  -4.877  0.00  0.00    +0.000 A 
ATOM     19  C   UNL     1       5.819   8.989  -3.571  0.00  0.00    +0.000 A 
ATOM     20  C   UNL     1       4.735   8.444  -2.912  0.00  0.00    +0.000 A 
ATOM     21  C   UNL     1       3.926   7.524  -3.553  0.00  0.00    +0.000 A 
ATOM     22  C   UNL     1       4.203   7.143  -4.853  0.00  0.00    +0.000 A 
ATOM     23  C   UNL     1       5.283   7.690  -5.518  0.00  0.00    +0.000 A 
BRANCH  18  24
ATOM     24  O   UNL     1       7.163   9.147  -5.528  0.00  0.00    +0.000 OA
BRANCH  24  25
ATOM     25  C   UNL     1       7.388   8.714  -6.871  0.00  0.00    +0.000 C 
BRANCH  25  27
ATOM     26  C   UNL     1       8.863   8.955  -8.873  0.00  0.00    +0.000 C 
ATOM     27  C   UNL     1       8.623   9.419  -7.434  0.00  0.00    +0.000 C 
ENDBRANCH  25  27
ENDBRANCH  24  25
ENDBRANCH  18  24
ENDBRANCH  17  21
BRANCH  17  28
ATOM     28  O   UNL     1       1.676   6.720  -3.758  0.00  0.00    +0.000 OA
ATOM     29  H   UNL     1       1.973   6.099  -4.469  0.00  0.00    +0.000 HD
ENDBRANCH  17  28
ENDBRANCH  16  17
ENDBRANCH   1  16
TORSDOF 12
ENDMDL
MODEL      892
REMARK  Name = ZINC05550767
REMARK  14 active torsions:
REMARK  status: ('A' for Active; 'I' for Inactive)
REMARK    1  A    between atoms: C_1  and  C_2
REMARK    2  A    between atoms: C_2  and  C_3
REMARK    3  A    between atoms: C_3  and  C_4
REMARK    4  A    between atoms: C_4  and  C_5
REMARK    5  A    between atoms: C_5  and  C_6
REMARK    6  A    between atoms: C_6  and  C_7
REMARK    7  A    between atoms: C_6  and  O_23
REMARK    8  A    between atoms: C_8  and  C_9
REMARK    9  A    between atoms: C_10  and  O_22
REMARK   10  A    between atoms: C_15  and  C_16
REMARK   11  A    between atoms: C_16  and  C_17
REMARK   12  A    between atoms: C_17  and  C_18
REMARK   13  A    between atoms: C_18  and  C_19
REMARK   14  A    between atoms: C_19  and  C_20
REMARK                            x       y       z     vdW  Elec       q    Type
REMARK                         _______ _______ _______ _____ _____    ______ ____
ROOT
ATOM      1  C   UNL     1       1.022   1.161   4.659  0.00  0.00    +0.000 C 
ATOM      2  C   UNL     1       2.447   1.712   4.809  0.00  0.00    +0.000 C 
ATOM      3  C   UNL     1       2.512   2.444   6.157  0.00  0.00    +0.000 C 
ATOM      4  C   UNL     1       1.313   1.940   6.976  0.00  0.00    +0.000 C 
ATOM      5  C   UNL     1       0.237   1.555   5.920  0.00  0.00    +0.000 C 
ATOM      6  C   UNL     1      -0.339   0.271   6.563  0.00  0.00    +0.000 C 
ATOM      7  C   UNL     1       0.783  -0.227   7.447  0.00  0.00    +0.000 C 
ATOM      8  N   UNL     1       1.666   0.680   7.660  0.00  0.00    +0.000 NA
ENDROOT
BRANCH   2   9
ATOM      9  O   UNL     1       3.388   0.637   4.793  0.00  0.00    +0.000 OA
ATOM     10  H   UNL     1       3.312   0.147   3.936  0.00  0.00    +0.000 HD
ENDBRANCH   2   9
BRANCH   1  12
ATOM     11  C   UNL     1      -0.074   0.981   2.485  0.00  0.00    +0.000 C 
ATOM     12  C   UNL     1       0.367   1.760   3.441  0.00  0.00    +0.000 C 
BRANCH  11  13
ATOM     13  C   UNL     1      -0.729   1.579   1.267  0.00  0.00    +0.000 C 
BRANCH  13  14
ATOM     14  O   UNL     1      -0.647   3.004   1.334  0.00  0.00    +0.000 OA
ATOM     15  H   UNL     1      -1.077   3.399   0.534  0.00  0.00    +0.000 HD
ENDBRANCH  13  14
BRANCH  13  16
ATOM     16  C   UNL     1      -0.013   1.086   0.008  0.00  0.00    +0.000 C 
BRANCH  16  17
ATOM     17  C   UNL     1      -0.753   1.593  -1.232  0.00  0.00    +0.000 C 
BRANCH  17  18
ATOM     18  C   UNL     1      -0.037   1.099  -2.490  0.00  0.00    +0.000 C 
BRANCH  18  20
ATOM     19  C   UNL     1      -0.060   1.113  -4.989  0.00  0.00    +0.000 C 
ATOM     20  C   UNL     1      -0.777   1.606  -3.730  0.00  0.00    +0.000 C 
ENDBRANCH  18  20
ENDBRANCH  17  18
ENDBRANCH  16  17
ENDBRANCH  13  16
ENDBRANCH  11  13
ENDBRANCH   1  12
BRANCH   7  21
ATOM     21  C   UNL     1       0.864  -1.620   8.016  0.00  0.00    +0.000 C 
BRANCH  21  22
ATOM     22  C   UNL     1       2.135  -1.754   8.857  0.00  0.00    +0.000 C 
BRANCH  22  23
ATOM     23  C   UNL     1       2.216  -3.169   9.435  0.00  0.00    +0.000 C 
BRANCH  23  24
ATOM     24  C   UNL     1       3.487  -3.303  10.277  0.00  0.00    +0.000 C 
BRANCH  24  25
ATOM     25  C   UNL     1       3.568  -4.696  10.846  0.00  0.00    +0.000 C 
ATOM     26  O   UNL     1       2.698  -5.499  10.603  0.00  0.00    +0.000 OA
ATOM     27  O   UNL     1       4.606  -5.045  11.622  0.00  0.00    +0.000 OA
ENDBRANCH  24  25
ENDBRANCH  23  24
ENDBRANCH  22  23
ENDBRANCH  21  22
ENDBRANCH   7  21
TORSDOF 13
ENDMDL
MODEL      893
REMARK  Name = ZINC23991671
REMARK  15 active torsions:
REMARK  status: ('A' for Active; 'I' for Inactive)
REMARK    1  A    between atoms: C_1  and  C_2
REMARK    2  A    between atoms: C_2  and  C_3
REMARK    3  A    between atoms: C_3  and  C_4
REMARK    4  A    between atoms: C_4  and  N_5
REMARK    5  A    between atoms: N_5  and  C_6
REMARK    6  A    between atoms: N_5  and  C_7
REMARK    7  A    between atoms: C_7  and  C_8
REMARK    8  A    between atoms: N_10  and  N_11
REMARK    9  A    between atoms: C_12  and  C_14
REMARK   10  A    between atoms: C_16  and  O_24
REMARK   11  A    between atoms: C_17  and  O_22
REMARK   12  A    between atoms: C_18  and  O_20
REMARK   13  A    between atoms: O_20  and  C_21
REMARK   14  A    between atoms: O_22  and  C_23
REMARK   15  A    between atoms: O_24  and  C_25
REMARK                            x       y       z     vdW  Elec       q    Type
REMARK                         _______ _______ _______ _____ _____    ______ ____
ROOT
ATOM      1  N   UNL     1       0.088   7.377  -0.287  0.00  0.00    +0.000 N 
ATOM      2  C   UNL     1       0.194   6.044  -0.450  0.00  0.00    +0.000 C 
ATOM      3  O   UNL     1       0.754   5.593  -1.431  0.00  0.00    +0.000 OA
ATOM      4  H   UNL     1      -0.387   7.759   0.544  0.00  0.00    +0.000 HD
ENDROOT
BRANCH   2   5
ATOM      5  C   UNL     1      -0.369   5.129   0.563  0.00  0.00    +0.000 A 
ATOM      6  C   UNL     1      -1.012   5.645   1.691  0.00  0.00    +0.000 A 
ATOM      7  C   UNL     1      -1.538   4.787   2.639  0.00  0.00    +0.000 A 
ATOM      8  C   UNL     1      -1.432   3.409   2.467  0.00  0.00    +0.000 A 
ATOM      9  C   UNL     1      -0.787   2.893   1.346  0.00  0.00    +0.000 A 
ATOM     10  C   UNL     1      -0.260   3.747   0.396  0.00  0.00    +0.000 A 
BRANCH   9  11
ATOM     11  O   UNL     1      -0.682   1.547   1.184  0.00  0.00    +0.000 OA
ATOM     12  C   UNL     1      -0.013   1.086   0.008  0.00  0.00    +0.000 C 
ENDBRANCH   9  11
BRANCH   8  13
ATOM     13  O   UNL     1      -1.955   2.568   3.397  0.00  0.00    +0.000 OA
ATOM     14  C   UNL     1      -1.099   2.177   4.472  0.00  0.00    +0.000 C 
ENDBRANCH   8  13
BRANCH   7  15
ATOM     15  O   UNL     1      -2.164   5.289   3.737  0.00  0.00    +0.000 OA
ATOM     16  C   UNL     1      -2.242   6.711   3.846  0.00  0.00    +0.000 C 
ENDBRANCH   7  15
ENDBRANCH   2   5
BRANCH   1  19
ATOM     17  C   UNL     1       0.516   9.579  -1.086  0.00  0.00    +0.000 C 
ATOM     18  O   UNL     1      -0.043  10.028  -0.107  0.00  0.00    +0.000 OA
ATOM     19  N   UNL     1       0.622   8.245  -1.248  0.00  0.00    +0.000 N 
ATOM     20  H   UNL     1       1.096   7.864  -2.079  0.00  0.00    +0.000 HD
BRANCH  17  21
ATOM     21  C   UNL     1       1.091  10.512  -2.120  0.00  0.00    +0.000 C 
BRANCH  21  22
ATOM     22  N   UNL     1       0.846  11.903  -1.714  0.00  0.00    +0.000 N 
ATOM     23  C   UNL     1       1.591  12.233  -0.492  0.00  0.00    +0.000 C 
ATOM     24  H   UNL     1      -0.158  12.000  -1.508  0.00  0.00    +0.000 HD
BRANCH  22  25
ATOM     25  C   UNL     1       1.177  12.834  -2.801  0.00  0.00    +0.000 C 
BRANCH  25  26
ATOM     26  C   UNL     1       0.681  14.236  -2.440  0.00  0.00    +0.000 C 
BRANCH  26  28
ATOM     27  C   UNL     1       0.530  16.607  -3.211  0.00  0.00    +0.000 C 
ATOM     28  C   UNL     1       1.026  15.206  -3.572  0.00  0.00    +0.000 C 
ENDBRANCH  26  28
ENDBRANCH  25  26
ENDBRANCH  22  25
ENDBRANCH  21  22
ENDBRANCH  17  21
ENDBRANCH   1  19
TORSDOF 10
ENDMDL
MODEL      894
REMARK  Name = ZINC20717319
REMARK  11 active torsions:
REMARK  status: ('A' for Active; 'I' for Inactive)
REMARK    1  A    between atoms: C_1  and  N_2
REMARK    2  A    between atoms: N_2  and  C_3
REMARK    3  A    between atoms: N_2  and  C_4
REMARK    4  A    between atoms: C_4  and  C_5
REMARK    5  A    between atoms: C_5  and  N_6
REMARK    6  A    between atoms: C_7  and  C_9
REMARK    7  A    between atoms: C_11  and  C_14
REMARK    8  A    between atoms: C_14  and  O_15
REMARK    9  A    between atoms: O_15  and  C_16
REMARK   10  A    between atoms: C_19  and  C_22
REMARK   11  A    between atoms: C_22  and  C_23
REMARK                            x       y       z     vdW  Elec       q    Type
REMARK                         _______ _______ _______ _____ _____    ______ ____
ROOT
ATOM      1  C   UNL     1       1.993   0.720  -0.013  0.00  0.00    +0.000 A 
ATOM      2  N   UNL     1       1.286  -0.392  -0.012  0.00  0.00    +0.000 NA
ATOM      3  C   UNL     1       0.002  -0.004   0.002  0.00  0.00    +0.000 A 
ATOM      4  N   UNL     1      -0.016   1.297   0.009  0.00  0.00    +0.000 NA
ATOM      5  O   UNL     1       1.116   1.735   0.001  0.00  0.00    +0.000 OA
ENDROOT
BRANCH   1   7
ATOM      6  N   UNL     1       4.058   2.042  -0.025  0.00  0.00    +0.000 N 
ATOM      7  C   UNL     1       3.471   0.828  -0.026  0.00  0.00    +0.000 C 
ATOM      8  O   UNL     1       4.154  -0.177  -0.038  0.00  0.00    +0.000 OA
ATOM      9  H   UNL     1       3.479   2.893  -0.015  0.00  0.00    +0.000 HD
BRANCH   6  10
ATOM     10  C   UNL     1       5.519   2.149  -0.038  0.00  0.00    +0.000 C 
BRANCH  10  11
ATOM     11  C   UNL     1       5.922   3.624  -0.034  0.00  0.00    +0.000 C 
BRANCH  11  13
ATOM     12  C   UNL     1       7.811   5.119  -0.282  0.00  0.00    +0.000 C 
ATOM     13  N   UNL     1       7.387   3.732  -0.047  0.00  0.00    +0.000 N 
ATOM     14  C   UNL     1       7.964   3.209   1.198  0.00  0.00    +0.000 C 
ATOM     15  H   UNL     1       7.740   3.157  -0.826  0.00  0.00    +0.000 HD
ENDBRANCH  11  13
ENDBRANCH  10  11
ENDBRANCH   6  10
ENDBRANCH   1   7
BRANCH   3  16
ATOM     16  C   UNL     1      -1.202  -0.910   0.009  0.00  0.00    +0.000 C 
BRANCH  16  17
ATOM     17  O   UNL     1      -1.596  -1.190  -1.335  0.00  0.00    +0.000 OA
BRANCH  17  18
ATOM     18  C   UNL     1      -2.674  -2.000  -1.507  0.00  0.00    +0.000 A 
ATOM     19  C   UNL     1      -3.336  -2.519  -0.404  0.00  0.00    +0.000 A 
ATOM     20  C   UNL     1      -4.435  -3.336  -0.580  0.00  0.00    +0.000 A 
ATOM     21  C   UNL     1      -4.869  -3.647  -1.856  0.00  0.00    +0.000 A 
ATOM     22  C   UNL     1      -4.207  -3.136  -2.957  0.00  0.00    +0.000 A 
ATOM     23  C   UNL     1      -3.111  -2.313  -2.786  0.00  0.00    +0.000 A 
BRANCH  21  24
ATOM     24  C   UNL     1      -6.064  -4.545  -2.046  0.00  0.00    +0.000 C 
BRANCH  24  25
ATOM     25  C   UNL     1      -5.608  -5.979  -2.124  0.00  0.00    +0.000 C 
ATOM     26  O   UNL     1      -4.429  -6.246  -2.033  0.00  0.00    +0.000 OA
ATOM     27  N   UNL     1      -6.511  -6.965  -2.293  0.00  0.00    +0.000 N 
ATOM     28  H   UNL     1      -7.513  -6.738  -2.370  0.00  0.00    +0.000 HD
ATOM     29  H   UNL     1      -6.200  -7.945  -2.346  0.00  0.00    +0.000 HD
ENDBRANCH  24  25
ENDBRANCH  21  24
ENDBRANCH  17  18
ENDBRANCH  16  17
ENDBRANCH   3  16
TORSDOF 9
ENDMDL
MODEL      895
REMARK  Name = ZINC28090587
REMARK  16 active torsions:
REMARK  status: ('A' for Active; 'I' for Inactive)
REMARK    1  A    between atoms: C_1  and  C_2
REMARK    2  A    between atoms: C_2  and  C_3
REMARK    3  A    between atoms: C_3  and  C_4
REMARK    4  A    between atoms: C_3  and  C_5
REMARK    5  A    between atoms: C_5  and  C_6
REMARK    6  A    between atoms: C_5  and  N_25
REMARK    7  A    between atoms: C_6  and  O_8
REMARK    8  A    between atoms: O_8  and  C_9
REMARK    9  A    between atoms: C_9  and  C_10
REMARK   10  A    between atoms: C_10  and  N_11
REMARK   11  A    between atoms: N_11  and  O_24
REMARK   12  A    between atoms: C_12  and  C_14
REMARK   13  A    between atoms: C_14  and  C_15
REMARK   14  A    between atoms: C_18  and  O_22
REMARK   15  A    between atoms: C_19  and  O_21
REMARK   16  A    between atoms: O_22  and  C_23
REMARK                            x       y       z     vdW  Elec       q    Type
REMARK                         _______ _______ _______ _____ _____    ______ ____
ROOT
ATOM      1  N   UNL     1       1.143   1.898   0.001  0.00  0.00    +0.000 N 
ATOM      2  C   UNL     1      -0.014   1.209   0.009  0.00  0.00    +0.000 C 
ATOM      3  O   UNL     1       0.002  -0.004   0.002  0.00  0.00    +0.000 OA
ENDROOT
BRANCH   1   4
ATOM      4  O   UNL     1       1.124   3.314   0.009  0.00  0.00    +0.000 OA
ATOM      5  H   UNL     1       1.646   3.579  -0.790  0.00  0.00    +0.000 HD
ENDBRANCH   1   4
BRANCH   1   6
ATOM      6  C   UNL     1       2.422   1.183  -0.015  0.00  0.00    +0.000 C 
BRANCH   6   7
ATOM      7  C   UNL     1       2.671   0.616  -1.414  0.00  0.00    +0.000 C 
BRANCH   7   8
ATOM      8  O   UNL     1       2.830   1.708  -2.357  0.00  0.00    +0.000 OA
BRANCH   8   9
ATOM      9  C   UNL     1       3.058   1.378  -3.639  0.00  0.00    +0.000 C 
ATOM     10  O   UNL     1       3.122   0.215  -3.961  0.00  0.00    +0.000 OA
BRANCH   9  11
ATOM     11  C   UNL     1       3.233   2.457  -4.675  0.00  0.00    +0.000 C 
BRANCH  11  12
ATOM     12  N   UNL     1       3.923   1.903  -5.847  0.00  0.00    +0.000 N 
ATOM     13  H   UNL     1       4.044   2.641  -6.556  0.00  0.00    +0.000 HD
ATOM     14  H   UNL     1       3.365   1.134  -6.244  0.00  0.00    +0.000 HD
ATOM     15  H   UNL     1       4.847   1.546  -5.565  0.00  0.00    +0.000 HD
ENDBRANCH  11  12
BRANCH  11  16
ATOM     16  C   UNL     1       1.861   2.988  -5.095  0.00  0.00    +0.000 C 
ATOM     17  C   UNL     1       1.030   1.846  -5.684  0.00  0.00    +0.000 C 
BRANCH  16  19
ATOM     18  C   UNL     1       0.677   4.702  -6.476  0.00  0.00    +0.000 C 
ATOM     19  C   UNL     1       2.038   4.085  -6.148  0.00  0.00    +0.000 C 
ENDBRANCH  16  19
ENDBRANCH  11  16
ENDBRANCH   9  11
ENDBRANCH   8   9
ENDBRANCH   7   8
ENDBRANCH   6   7
ENDBRANCH   1   6
BRANCH   2  20
ATOM     20  C   UNL     1      -1.330   1.944   0.019  0.00  0.00    +0.000 C 
BRANCH  20  21
ATOM     21  C   UNL     1      -2.462   0.950   0.019  0.00  0.00    +0.000 A 
ATOM     22  C   UNL     1      -2.989   0.505  -1.179  0.00  0.00    +0.000 A 
ATOM     23  C   UNL     1      -4.024  -0.412  -1.185  0.00  0.00    +0.000 A 
ATOM     24  C   UNL     1      -4.542  -0.879   0.013  0.00  0.00    +0.000 A 
ATOM     25  C   UNL     1      -4.015  -0.427   1.219  0.00  0.00    +0.000 A 
ATOM     26  C   UNL     1      -2.974   0.488   1.217  0.00  0.00    +0.000 A 
BRANCH  24  27
ATOM     27  O   UNL     1      -5.563  -1.777   0.009  0.00  0.00    +0.000 OA
ATOM     28  C   UNL     1      -6.054  -2.196  -1.266  0.00  0.00    +0.000 C 
ENDBRANCH  24  27
BRANCH  25  29
ATOM     29  O   UNL     1      -4.520  -0.882   2.396  0.00  0.00    +0.000 OA
ATOM     30  H   UNL     1      -4.435  -1.868   2.345  0.00  0.00    +0.000 HD
ENDBRANCH  25  29
ENDBRANCH  20  21
ENDBRANCH   2  20
TORSDOF 13
ENDMDL
MODEL      896
REMARK  Name = ZINC15771728
REMARK  18 active torsions:
REMARK  status: ('A' for Active; 'I' for Inactive)
REMARK    1  A    between atoms: C_1  and  O_2
REMARK    2  A    between atoms: O_2  and  C_3
REMARK    3  A    between atoms: C_6  and  C_11
REMARK    4  A    between atoms: C_8  and  O_9
REMARK    5  A    between atoms: O_9  and  C_10
REMARK    6  A    between atoms: C_11  and  C_12
REMARK    7  A    between atoms: C_12  and  N_24
REMARK    8  A    between atoms: C_13  and  C_14
REMARK    9  A    between atoms: C_13  and  N_24
REMARK   10  A    between atoms: C_14  and  C_15
REMARK   11  A    between atoms: C_14  and  O_23
REMARK   12  A    between atoms: C_15  and  C_16
REMARK   13  A    between atoms: C_15  and  O_22
REMARK   14  A    between atoms: C_16  and  C_17
REMARK   15  A    between atoms: C_16  and  O_21
REMARK   16  A    between atoms: C_17  and  C_18
REMARK   17  A    between atoms: C_17  and  O_20
REMARK   18  A    between atoms: C_18  and  O_19
REMARK                            x       y       z     vdW  Elec       q    Type
REMARK                         _______ _______ _______ _____ _____    ______ ____
ROOT
ATOM      1  C   UNL     1       3.644   7.409   0.133  0.00  0.00    +0.000 C 
ENDROOT
BRANCH   1   2
ATOM      2  N   UNL     1       4.982   8.018   0.246  0.00  0.00    +0.000 N 
ATOM      3  H   UNL     1       5.585   7.658  -0.508  0.00  0.00    +0.000 HD
ATOM      4  H   UNL     1       5.395   7.768   1.156  0.00  0.00    +0.000 HD
BRANCH   2   5
ATOM      5  C   UNL     1       4.888   9.486   0.138  0.00  0.00    +0.000 C 
BRANCH   5   6
ATOM      6  C   UNL     1       6.289  10.089   0.258  0.00  0.00    +0.000 C 
BRANCH   6  10
ATOM      7  C   UNL     1       6.041  14.347  -0.059  0.00  0.00    +0.000 A 
ATOM      8  C   UNL     1       6.217  13.573  -1.195  0.00  0.00    +0.000 A 
ATOM      9  C   UNL     1       6.303  12.198  -1.089  0.00  0.00    +0.000 A 
ATOM     10  C   UNL     1       6.201  11.589   0.149  0.00  0.00    +0.000 A 
ATOM     11  C   UNL     1       6.025  12.355   1.286  0.00  0.00    +0.000 A 
ATOM     12  C   UNL     1       5.944  13.735   1.187  0.00  0.00    +0.000 A 
BRANCH  12  13
ATOM     13  O   UNL     1       5.771  14.489   2.305  0.00  0.00    +0.000 OA
ATOM     14  C   UNL     1       5.680  13.793   3.550  0.00  0.00    +0.000 C 
ENDBRANCH  12  13
BRANCH   7  16
ATOM     15  C   UNL     1       6.069  16.259  -1.472  0.00  0.00    +0.000 C 
ATOM     16  O   UNL     1       5.962  15.700  -0.161  0.00  0.00    +0.000 OA
ENDBRANCH   7  16
ENDBRANCH   6  10
ENDBRANCH   5   6
ENDBRANCH   2   5
ENDBRANCH   1   2
BRANCH   1  17
ATOM     17  C   UNL     1       3.773   5.889   0.249  0.00  0.00    +0.000 C 
BRANCH  17  18
ATOM     18  O   UNL     1       4.613   5.401  -0.799  0.00  0.00    +0.000 OA
ATOM     19  H   UNL     1       5.509   5.814  -0.725  0.00  0.00    +0.000 HD
ENDBRANCH  17  18
BRANCH  17  20
ATOM     20  C   UNL     1       2.388   5.249   0.133  0.00  0.00    +0.000 C 
BRANCH  20  21
ATOM     21  O   UNL     1       1.766   5.677  -1.080  0.00  0.00    +0.000 OA
ATOM     22  H   UNL     1       2.321   5.402  -1.852  0.00  0.00    +0.000 HD
ENDBRANCH  20  21
BRANCH  20  23
ATOM     23  C   UNL     1       2.530   3.725   0.124  0.00  0.00    +0.000 C 
BRANCH  23  24
ATOM     24  O   UNL     1       3.152   3.297   1.337  0.00  0.00    +0.000 OA
ATOM     25  H   UNL     1       2.596   3.571   2.108  0.00  0.00    +0.000 HD
ENDBRANCH  23  24
BRANCH  23  26
ATOM     26  C   UNL     1       1.145   3.085   0.008  0.00  0.00    +0.000 C 
BRANCH  26  27
ATOM     27  O   UNL     1       0.522   3.513  -1.205  0.00  0.00    +0.000 OA
ATOM     28  H   UNL     1       1.078   3.239  -1.977  0.00  0.00    +0.000 HD
ENDBRANCH  26  27
BRANCH  26  29
ATOM     29  C   UNL     1       1.286   1.562  -0.002  0.00  0.00    +0.000 C 
BRANCH  29  30
ATOM     30  O   UNL     1      -0.011   0.963   0.007  0.00  0.00    +0.000 OA
ATOM     31  H   UNL     1      -0.514   1.252  -0.795  0.00  0.00    +0.000 HD
ENDBRANCH  29  30
ENDBRANCH  26  29
ENDBRANCH  23  26
ENDBRANCH  20  23
ENDBRANCH  17  20
ENDBRANCH   1  17
TORSDOF 16
ENDMDL
MODEL      897
REMARK  Name = ZINC20381126
REMARK  12 active torsions:
REMARK  status: ('A' for Active; 'I' for Inactive)
REMARK    1  A    between atoms: C_1  and  O_2
REMARK    2  A    between atoms: O_2  and  C_3
REMARK    3  A    between atoms: C_6  and  O_9
REMARK    4  A    between atoms: O_9  and  C_10
REMARK    5  A    between atoms: C_10  and  C_11
REMARK    6  A    between atoms: C_11  and  C_12
REMARK    7  A    between atoms: C_12  and  C_13
REMARK    8  A    between atoms: N_15  and  C_16
REMARK    9  A    between atoms: N_22  and  C_23
REMARK   10  A    between atoms: C_23  and  C_24
REMARK   11  A    between atoms: C_24  and  C_25
REMARK   12  A    between atoms: C_25  and  O_26
REMARK                            x       y       z     vdW  Elec       q    Type
REMARK                         _______ _______ _______ _____ _____    ______ ____
ROOT
ATOM      1  C   UNL     1      -0.014   1.209   0.009  0.00  0.00    +0.000 C 
ATOM      2  O   UNL     1       0.002  -0.004  -0.002  0.00  0.00    +0.000 OA
ATOM      3  N   UNL     1      -1.191   1.867   0.018  0.00  0.00    +0.000 N 
ATOM      4  H   UNL     1      -1.206   2.893   0.101  0.00  0.00    +0.000 HD
ENDROOT
BRANCH   3   5
ATOM      5  C   UNL     1      -2.393   1.154  -0.086  0.00  0.00    +0.000 A 
ATOM      6  C   UNL     1      -2.520  -0.105   0.498  0.00  0.00    +0.000 A 
ATOM      7  C   UNL     1      -3.724  -0.772   0.371  0.00  0.00    +0.000 A 
ATOM      8  C   UNL     1      -4.763  -0.169  -0.331  0.00  0.00    +0.000 A 
ATOM      9  N   UNL     1      -4.607   1.028  -0.873  0.00  0.00    +0.000 NA
ATOM     10  C   UNL     1      -3.473   1.695  -0.767  0.00  0.00    +0.000 A 
ATOM     11  N   UNL     1      -5.979  -0.832  -0.465  0.00  0.00    +0.000 N 
ATOM     12  H   UNL     1      -6.752  -0.390  -0.983  0.00  0.00    +0.000 HD
BRANCH  11  13
ATOM     13  C   UNL     1      -6.161  -2.158   0.132  0.00  0.00    +0.000 C 
BRANCH  13  14
ATOM     14  C   UNL     1      -7.577  -2.659  -0.159  0.00  0.00    +0.000 C 
BRANCH  14  15
ATOM     15  C   UNL     1      -7.766  -4.043   0.464  0.00  0.00    +0.000 C 
BRANCH  15  16
ATOM     16  O   UNL     1      -9.089  -4.511   0.192  0.00  0.00    +0.000 OA
ATOM     17  H   UNL     1      -9.224  -4.569  -0.787  0.00  0.00    +0.000 HD
ENDBRANCH  15  16
ENDBRANCH  14  15
ENDBRANCH  13  14
ENDBRANCH  11  13
ENDBRANCH   3   5
BRANCH   1  18
ATOM     18  C   UNL     1       1.280   1.980   0.009  0.00  0.00    +0.000 C 
BRANCH  18  19
ATOM     19  C   UNL     1       2.457   1.001  -0.008  0.00  0.00    +0.000 C 
BRANCH  19  20
ATOM     20  C   UNL     1       3.771   1.784  -0.009  0.00  0.00    +0.000 C 
BRANCH  20  21
ATOM     21  O   UNL     1       4.870   0.871  -0.025  0.00  0.00    +0.000 OA
BRANCH  21  25
ATOM     22  C   UNL     1       8.663   2.500  -0.035  0.00  0.00    +0.000 A 
ATOM     23  C   UNL     1       8.499   1.123  -0.046  0.00  0.00    +0.000 A 
ATOM     24  C   UNL     1       7.230   0.577  -0.043  0.00  0.00    +0.000 A 
ATOM     25  C   UNL     1       6.119   1.407  -0.028  0.00  0.00    +0.000 A 
ATOM     26  C   UNL     1       6.282   2.785  -0.021  0.00  0.00    +0.000 A 
ATOM     27  C   UNL     1       7.551   3.330  -0.020  0.00  0.00    +0.000 A 
BRANCH  22  29
ATOM     28  C   UNL     1      10.006   4.463  -0.025  0.00  0.00    +0.000 C 
ATOM     29  O   UNL     1       9.912   3.037  -0.037  0.00  0.00    +0.000 OA
ENDBRANCH  22  29
ENDBRANCH  21  25
ENDBRANCH  20  21
ENDBRANCH  19  20
ENDBRANCH  18  19
ENDBRANCH   1  18
TORSDOF 11
ENDMDL
MODEL      898
REMARK  Name = ZINC31381385
REMARK  14 active torsions:
REMARK  status: ('A' for Active; 'I' for Inactive)
REMARK    1  A    between atoms: C_1  and  C_2
REMARK    2  A    between atoms: C_2  and  N_3
REMARK    3  A    between atoms: N_3  and  C_4
REMARK    4  A    between atoms: N_3  and  C_6
REMARK    5  A    between atoms: C_4  and  C_5
REMARK    6  A    between atoms: C_6  and  C_7
REMARK    7  A    between atoms: C_6  and  C_23
REMARK    8  A    between atoms: C_7  and  N_8
REMARK    9  A    between atoms: C_9  and  C_11
REMARK   10  A    between atoms: C_11  and  N_12
REMARK   11  A    between atoms: C_15  and  C_19
REMARK   12  A    between atoms: C_15  and  C_20
REMARK   13  A    between atoms: C_23  and  C_24
REMARK   14  A    between atoms: C_23  and  C_25
REMARK                            x       y       z     vdW  Elec       q    Type
REMARK                         _______ _______ _______ _____ _____    ______ ____
ROOT
ATOM      1  N   UNL     1      -1.593   1.176  -0.444  0.00  0.00    +0.000 N 
ATOM      2  C   UNL     1      -0.770   0.150  -0.738  0.00  0.00    +0.000 C 
ATOM      3  O   UNL     1      -1.209  -0.979  -0.807  0.00  0.00    +0.000 OA
ATOM      4  H   UNL     1      -1.220   2.134  -0.385  0.00  0.00    +0.000 HD
ENDROOT
BRANCH   1   5
ATOM      5  C   UNL     1      -3.017   0.928  -0.207  0.00  0.00    +0.000 C 
BRANCH   5   6
ATOM      6  C   UNL     1      -3.720   2.250   0.104  0.00  0.00    +0.000 C 
BRANCH   6   7
ATOM      7  C   UNL     1      -5.196   1.984   0.409  0.00  0.00    +0.000 C 
ATOM      8  C   UNL     1      -5.982   3.293   0.308  0.00  0.00    +0.000 C 
ATOM      9  C   UNL     1      -5.751   0.977  -0.600  0.00  0.00    +0.000 C 
ENDBRANCH   6   7
BRANCH   6  10
ATOM     10  N   UNL     1      -3.085   2.879   1.270  0.00  0.00    +0.000 N 
ATOM     11  H   UNL     1      -2.090   3.024   1.049  0.00  0.00    +0.000 HD
BRANCH  10  13
ATOM     12  C   UNL     1      -2.717   5.019   2.402  0.00  0.00    +0.000 C 
ATOM     13  C   UNL     1      -3.681   4.193   1.549  0.00  0.00    +0.000 C 
ENDBRANCH  10  13
BRANCH  10  14
ATOM     14  C   UNL     1      -3.164   2.005   2.448  0.00  0.00    +0.000 C 
ATOM     15  C   UNL     1      -1.941   1.086   2.483  0.00  0.00    +0.000 C 
ENDBRANCH  10  14
ENDBRANCH   6  10
ENDBRANCH   5   6
ENDBRANCH   1   5
BRANCH   2  16
ATOM     16  C   UNL     1       0.694   0.406  -0.988  0.00  0.00    +0.000 C 
BRANCH  16  17
ATOM     17  N   UNL     1       1.366  -0.860  -1.292  0.00  0.00    +0.000 N 
ATOM     18  C   UNL     1       1.503  -1.366  -2.533  0.00  0.00    +0.000 C 
ATOM     19  O   UNL     1       1.107  -0.878  -3.570  0.00  0.00    +0.000 OA
ATOM     20  C   UNL     1       2.254  -2.671  -2.364  0.00  0.00    +0.000 C 
ATOM     21  N   UNL     1       2.474  -2.758  -0.910  0.00  0.00    +0.000 NA
ATOM     22  C   UNL     1       1.925  -1.654  -0.371  0.00  0.00    +0.000 C 
ATOM     23  O   UNL     1       1.933  -1.407   0.819  0.00  0.00    +0.000 OA
ATOM     24  C   UNL     1       3.588  -2.626  -3.111  0.00  0.00    +0.000 C 
BRANCH  20  25
ATOM     25  C   UNL     1       1.406  -3.848  -2.850  0.00  0.00    +0.000 C 
ATOM     26  C   UNL     1       0.893  -4.832  -1.798  0.00  0.00    +0.000 C 
ATOM     27  C   UNL     1       2.016  -5.248  -2.751  0.00  0.00    +0.000 C 
ENDBRANCH  20  25
ENDBRANCH  16  17
ENDBRANCH   2  16
TORSDOF 9
ENDMDL
MODEL      899
REMARK  Name = ZINC11793750
REMARK  11 active torsions:
REMARK  status: ('A' for Active; 'I' for Inactive)
REMARK    1  A    between atoms: C_1  and  N_24
REMARK    2  A    between atoms: C_2  and  N_24
REMARK    3  A    between atoms: C_3  and  C_4
REMARK    4  A    between atoms: C_3  and  N_24
REMARK    5  A    between atoms: C_4  and  N_5
REMARK    6  A    between atoms: C_6  and  C_8
REMARK    7  A    between atoms: C_8  and  C_9
REMARK    8  A    between atoms: C_9  and  C_10
REMARK    9  A    between atoms: C_10  and  S_11
REMARK   10  A    between atoms: S_11  and  C_12
REMARK   11  A    between atoms: C_19  and  C_21
REMARK                            x       y       z     vdW  Elec       q    Type
REMARK                         _______ _______ _______ _____ _____    ______ ____
ROOT
ATOM      1  S   UNL     1       1.009   3.759   0.019  0.00  0.00    +0.000 S 
ENDROOT
BRANCH   1   2
ATOM      2  C   UNL     1       1.096   1.999   0.007  0.00  0.00    +0.000 A 
ATOM      3  C   UNL     1       2.338   1.360  -0.008  0.00  0.00    +0.000 A 
ATOM      4  C   UNL     1       2.355  -0.023  -0.017  0.00  0.00    +0.000 A 
ATOM      5  C   UNL     1       1.131  -0.693  -0.011  0.00  0.00    +0.000 A 
ATOM      6  N   UNL     1       0.002  -0.004   0.004  0.00  0.00    +0.000 NA
ATOM      7  N   UNL     1      -0.015   1.279   0.013  0.00  0.00    +0.000 NA
ATOM      8  N   UNL     1       1.097  -2.090  -0.020  0.00  0.00    +0.000 N 
ATOM      9  C   UNL     1      -0.080  -2.736   0.089  0.00  0.00    +0.000 C 
ATOM     10  O   UNL     1      -1.118  -2.109   0.103  0.00  0.00    +0.000 OA
ATOM     11  H   UNL     1       1.973  -2.625  -0.111  0.00  0.00    +0.000 HD
BRANCH   9  12
ATOM     12  C   UNL     1      -0.107  -4.239   0.195  0.00  0.00    +0.000 C 
ATOM     13  C   UNL     1      -0.683  -5.020  -0.988  0.00  0.00    +0.000 C 
ATOM     14  C   UNL     1      -1.475  -4.915   0.317  0.00  0.00    +0.000 C 
ENDBRANCH   9  12
ENDBRANCH   1   2
BRANCH   1  15
ATOM     15  C   UNL     1      -0.771   4.110   0.037  0.00  0.00    +0.000 C 
BRANCH  15  16
ATOM     16  C   UNL     1      -0.992   5.624   0.048  0.00  0.00    +0.000 C 
BRANCH  16  17
ATOM     17  C   UNL     1      -2.493   5.920   0.063  0.00  0.00    +0.000 C 
BRANCH  17  19
ATOM     18  N   UNL     1      -3.963   7.909   0.088  0.00  0.00    +0.000 N 
ATOM     19  C   UNL     1      -2.711   7.411   0.074  0.00  0.00    +0.000 C 
ATOM     20  O   UNL     1      -1.759   8.163   0.071  0.00  0.00    +0.000 OA
ATOM     21  H   UNL     1      -4.771   7.270   0.091  0.00  0.00    +0.000 HD
BRANCH  18  22
ATOM     22  C   UNL     1      -4.175   9.358   0.099  0.00  0.00    +0.000 C 
BRANCH  22  23
ATOM     23  C   UNL     1      -5.676   9.654   0.114  0.00  0.00    +0.000 C 
BRANCH  23  26
ATOM     24  C   UNL     1      -7.303  11.435  -0.099  0.00  0.00    +0.000 C 
ATOM     25  C   UNL     1      -5.403  11.701   1.378  0.00  0.00    +0.000 C 
ATOM     26  N   UNL     1      -5.873  11.119   0.104  0.00  0.00    +0.000 N 
ATOM     27  H   UNL     1      -5.328  11.525  -0.671  0.00  0.00    +0.000 HD
ENDBRANCH  23  26
ENDBRANCH  22  23
ENDBRANCH  18  22
ENDBRANCH  17  19
ENDBRANCH  16  17
ENDBRANCH  15  16
ENDBRANCH   1  15
TORSDOF 9
ENDMDL
MODEL      900
REMARK  Name = ZINC24671714
REMARK  13 active torsions:
REMARK  status: ('A' for Active; 'I' for Inactive)
REMARK    1  A    between atoms: C_1  and  C_2
REMARK    2  A    between atoms: C_2  and  C_3
REMARK    3  A    between atoms: C_3  and  C_4
REMARK    4  A    between atoms: C_4  and  N_5
REMARK    5  A    between atoms: C_9  and  S_21
REMARK    6  A    between atoms: C_13  and  C_14
REMARK    7  A    between atoms: C_14  and  N_15
REMARK    8  A    between atoms: N_15  and  C_16
REMARK    9  A    between atoms: N_15  and  C_18
REMARK   10  A    between atoms: C_16  and  C_17
REMARK   11  A    between atoms: C_18  and  C_19
REMARK   12  A    between atoms: C_19  and  O_20
REMARK   13  A    between atoms: S_21  and  N_24
REMARK                            x       y       z     vdW  Elec       q    Type
REMARK                         _______ _______ _______ _____ _____    ______ ____
ROOT
ATOM      1  N   UNL     1       1.655  -0.310  -0.738  0.00  0.00    +0.000 N 
ATOM      2  C   UNL     1       2.509   0.707  -1.117  0.00  0.00    +0.000 A 
ATOM      3  C   UNL     1       3.877   0.788  -1.341  0.00  0.00    +0.000 A 
ATOM      4  C   UNL     1       4.436   1.988  -1.723  0.00  0.00    +0.000 A 
ATOM      5  C   UNL     1       3.642   3.114  -1.886  0.00  0.00    +0.000 A 
ATOM      6  C   UNL     1       2.294   3.053  -1.671  0.00  0.00    +0.000 A 
ATOM      7  C   UNL     1       1.705   1.847  -1.282  0.00  0.00    +0.000 A 
ATOM      8  N   UNL     1       0.429   1.476  -1.001  0.00  0.00    +0.000 NA
ATOM      9  C   UNL     1       0.401   0.215  -0.683  0.00  0.00    +0.000 A 
ENDROOT
BRANCH   5  10
ATOM     10  S   UNL     1       4.378   4.638  -2.376  0.00  0.00    +0.000 S 
ATOM     11  O   UNL     1       3.510   5.671  -1.931  0.00  0.00    +0.000 OA
ATOM     12  O   UNL     1       5.744   4.572  -1.989  0.00  0.00    +0.000 OA
BRANCH  10  13
ATOM     13  N   UNL     1       4.357   4.682  -4.031  0.00  0.00    +0.000 NA
ATOM     14  H   UNL     1       4.327   3.805  -4.569  0.00  0.00    +0.000 HD
ATOM     15  H   UNL     1       4.375   5.587  -4.522  0.00  0.00    +0.000 HD
ENDBRANCH  10  13
ENDBRANCH   5  10
BRANCH   9  16
ATOM     16  C   UNL     1      -0.840  -0.553  -0.308  0.00  0.00    +0.000 C 
BRANCH  16  17
ATOM     17  N   UNL     1      -1.440  -1.135  -1.516  0.00  0.00    +0.000 N 
ATOM     18  H   UNL     1      -0.708  -1.665  -2.009  0.00  0.00    +0.000 HD
BRANCH  17  19
ATOM     19  C   UNL     1      -1.924  -0.084  -2.421  0.00  0.00    +0.000 C 
ATOM     20  C   UNL     1      -2.163  -0.679  -3.811  0.00  0.00    +0.000 C 
ENDBRANCH  17  19
BRANCH  17  21
ATOM     21  C   UNL     1      -2.519  -2.070  -1.170  0.00  0.00    +0.000 C 
BRANCH  21  22
ATOM     22  C   UNL     1      -1.915  -3.393  -0.695  0.00  0.00    +0.000 C 
BRANCH  22  23
ATOM     23  O   UNL     1      -1.240  -3.189   0.548  0.00  0.00    +0.000 OA
ATOM     24  H   UNL     1      -1.883  -2.859   1.224  0.00  0.00    +0.000 HD
ENDBRANCH  22  23
ENDBRANCH  21  22
ENDBRANCH  17  21
ENDBRANCH  16  17
ENDBRANCH   9  16
BRANCH   1  25
ATOM     25  C   UNL     1       2.030  -1.696  -0.448  0.00  0.00    +0.000 C 
BRANCH  25  26
ATOM     26  C   UNL     1       1.956  -2.524  -1.732  0.00  0.00    +0.000 C 
BRANCH  26  28
ATOM     27  C   UNL     1       2.273  -4.799  -2.714  0.00  0.00    +0.000 C 
ATOM     28  C   UNL     1       2.347  -3.971  -1.430  0.00  0.00    +0.000 C 
ENDBRANCH  26  28
ENDBRANCH  25  26
ENDBRANCH   1  25
TORSDOF 11
ENDMDL
MODEL      901
REMARK  Name = ZINC04226595
REMARK  9 active torsions:
REMARK  status: ('A' for Active; 'I' for Inactive)
REMARK    1  A    between atoms: C_1  and  C_2
REMARK    2  A    between atoms: C_4  and  N_13
REMARK    3  A    between atoms: C_9  and  C_11
REMARK    4  A    between atoms: N_13  and  C_14
REMARK    5  A    between atoms: C_14  and  C_15
REMARK    6  A    between atoms: C_15  and  O_16
REMARK    7  A    between atoms: O_16  and  C_17
REMARK    8  A    between atoms: C_17  and  C_18
REMARK    9  A    between atoms: C_18  and  O_19
REMARK                            x       y       z     vdW  Elec       q    Type
REMARK                         _______ _______ _______ _____ _____    ______ ____
ROOT
ATOM      1  C   UNL     1       4.825   0.120  -0.066  0.00  0.00    +0.000 C 
ATOM      2  C   UNL     1       3.549  -0.681  -0.053  0.00  0.00    +0.000 A 
ATOM      3  C   UNL     1       3.622  -2.066  -0.061  0.00  0.00    +0.000 A 
ATOM      4  C   UNL     1       2.454  -2.815  -0.038  0.00  0.00    +0.000 A 
ATOM      5  C   UNL     1       1.221  -2.118  -0.021  0.00  0.00    +0.000 A 
ATOM      6  C   UNL     1      -0.001  -2.804  -0.013  0.00  0.00    +0.000 A 
ATOM      7  C   UNL     1      -1.176  -2.109   0.003  0.00  0.00    +0.000 A 
ATOM      8  C   UNL     1      -1.187  -0.722   0.009  0.00  0.00    +0.000 A 
ATOM      9  C   UNL     1       0.002  -0.004   0.002  0.00  0.00    +0.000 A 
ATOM     10  C   UNL     1       1.236  -0.704  -0.019  0.00  0.00    +0.000 A 
ATOM     11  N   UNL     1       2.397   0.032  -0.032  0.00  0.00    +0.000 N 
ATOM     12  H   UNL     1       2.391   1.062  -0.027  0.00  0.00    +0.000 HD
ENDROOT
BRANCH   9  13
ATOM     13  C   UNL     1      -0.018   1.468   0.010  0.00  0.00    +0.000 C 
ATOM     14  O   UNL     1       1.026   2.090   0.004  0.00  0.00    +0.000 OA
ATOM     15  O   UNL     1      -1.194   2.126   0.019  0.00  0.00    +0.000 OA
ENDBRANCH   9  13
BRANCH   4  16
ATOM     16  N   UNL     1       2.493  -4.199  -0.045  0.00  0.00    +0.000 N 
ATOM     17  H   UNL     1       1.616  -4.739  -0.039  0.00  0.00    +0.000 HD
BRANCH  16  18
ATOM     18  C   UNL     1       3.781  -4.896  -0.062  0.00  0.00    +0.000 C 
BRANCH  18  19
ATOM     19  C   UNL     1       3.544  -6.407  -0.068  0.00  0.00    +0.000 C 
BRANCH  19  20
ATOM     20  O   UNL     1       2.895  -6.783  -1.284  0.00  0.00    +0.000 OA
BRANCH  20  21
ATOM     21  C   UNL     1       2.626  -8.182  -1.391  0.00  0.00    +0.000 C 
BRANCH  21  22
ATOM     22  C   UNL     1       1.934  -8.468  -2.725  0.00  0.00    +0.000 C 
BRANCH  22  23
ATOM     23  O   UNL     1       2.829  -8.172  -3.799  0.00  0.00    +0.000 OA
ATOM     24  H   UNL     1       3.638  -8.737  -3.721  0.00  0.00    +0.000 HD
ENDBRANCH  22  23
ENDBRANCH  21  22
ENDBRANCH  20  21
ENDBRANCH  19  20
ENDBRANCH  18  19
ENDBRANCH  16  18
ENDBRANCH   4  16
TORSDOF 8
ENDMDL
MODEL      902
REMARK  Name = ZINC16980738
REMARK  12 active torsions:
REMARK  status: ('A' for Active; 'I' for Inactive)
REMARK    1  A    between atoms: C_1  and  C_2
REMARK    2  A    between atoms: C_2  and  C_19
REMARK    3  A    between atoms: C_5  and  C_12
REMARK    4  A    between atoms: C_7  and  O_10
REMARK    5  A    between atoms: O_10  and  C_11
REMARK    6  A    between atoms: C_12  and  N_20
REMARK    7  A    between atoms: C_13  and  C_14
REMARK    8  A    between atoms: C_13  and  N_20
REMARK    9  A    between atoms: C_14  and  O_15
REMARK   10  A    between atoms: C_16  and  C_17
REMARK   11  A    between atoms: C_16  and  N_20
REMARK   12  A    between atoms: C_17  and  O_18
REMARK                            x       y       z     vdW  Elec       q    Type
REMARK                         _______ _______ _______ _____ _____    ______ ____
ROOT
ATOM      1  C   UNL     1      -5.816  -2.031  -1.116  0.00  0.00    +0.000 C 
ATOM      2  C   UNL     1      -5.562  -0.876  -0.145  0.00  0.00    +0.000 C 
ATOM      3  O   UNL     1      -4.313  -0.189  -0.481  0.00  0.00    +0.000 OA
ATOM      4  C   UNL     1      -3.392  -0.863   0.337  0.00  0.00    +0.000 C 
ATOM      5  C   UNL     1      -2.084  -0.332   0.857  0.00  0.00    +0.000 C 
ATOM      6  O   UNL     1      -1.974  -0.829   2.219  0.00  0.00    +0.000 OA
ATOM      7  C   UNL     1      -3.221  -1.497   2.581  0.00  0.00    +0.000 C 
ATOM      8  C   UNL     1      -4.234  -0.836   1.677  0.00  0.00    +0.000 C 
ATOM      9  O   UNL     1      -5.428  -1.392   1.211  0.00  0.00    +0.000 OA
ATOM     10  C   UNL     1      -6.723   0.118  -0.209  0.00  0.00    +0.000 C 
ENDROOT
BRANCH   7  11
ATOM     11  O   UNL     1      -3.540  -1.263   3.954  0.00  0.00    +0.000 OA
ATOM     12  C   UNL     1      -2.691  -1.952   4.873  0.00  0.00    +0.000 C 
ENDBRANCH   7  11
BRANCH   5  13
ATOM     13  C   UNL     1      -2.094   1.198   0.852  0.00  0.00    +0.000 C 
BRANCH  13  14
ATOM     14  N   UNL     1      -0.770   1.683   1.296  0.00  0.00    +0.000 N 
ATOM     15  H   UNL     1      -0.482   1.152   2.130  0.00  0.00    +0.000 HD
BRANCH  14  16
ATOM     16  C   UNL     1       0.228   1.476   0.226  0.00  0.00    +0.000 C 
BRANCH  16  17
ATOM     17  C   UNL     1      -0.152   2.272  -1.024  0.00  0.00    +0.000 C 
BRANCH  17  18
ATOM     18  O   UNL     1       0.039   3.667  -0.778  0.00  0.00    +0.000 OA
ATOM     19  H   UNL     1       0.989   3.836  -0.556  0.00  0.00    +0.000 HD
ENDBRANCH  17  18
ENDBRANCH  16  17
ENDBRANCH  14  16
BRANCH  14  20
ATOM     20  C   UNL     1      -0.849   3.117   1.644  0.00  0.00    +0.000 C 
BRANCH  20  21
ATOM     21  C   UNL     1       0.444   3.523   2.355  0.00  0.00    +0.000 C 
BRANCH  21  22
ATOM     22  O   UNL     1       1.527   3.500   1.424  0.00  0.00    +0.000 OA
ATOM     23  H   UNL     1       1.344   4.134   0.686  0.00  0.00    +0.000 HD
ENDBRANCH  21  22
ENDBRANCH  20  21
ENDBRANCH  14  20
ENDBRANCH  13  14
ENDBRANCH   5  13
TORSDOF 9
ENDMDL
MODEL      903
REMARK  Name = ZINC04494642
REMARK  10 active torsions:
REMARK  status: ('A' for Active; 'I' for Inactive)
REMARK    1  A    between atoms: C_1  and  C_2
REMARK    2  A    between atoms: C_2  and  C_3
REMARK    3  A    between atoms: C_3  and  C_4
REMARK    4  A    between atoms: N_13  and  C_14
REMARK    5  A    between atoms: C_14  and  C_15
REMARK    6  A    between atoms: C_15  and  N_20
REMARK    7  A    between atoms: C_16  and  C_17
REMARK    8  A    between atoms: C_16  and  N_20
REMARK    9  A    between atoms: C_18  and  C_19
REMARK   10  A    between atoms: C_18  and  N_20
REMARK                            x       y       z     vdW  Elec       q    Type
REMARK                         _______ _______ _______ _____ _____    ______ ____
ROOT
ATOM      1  C   UNL     1      -0.091   5.328  -0.002  0.00  0.00    +0.000 C 
ATOM      2  N   UNL     1       1.048   6.042  -0.098  0.00  0.00    +0.000 NA
ENDROOT
BRANCH   1   3
ATOM      3  C   UNL     1      -0.036   3.961   0.195  0.00  0.00    +0.000 C 
ATOM      4  C   UNL     1       1.243   3.230   0.160  0.00  0.00    +0.000 C 
ATOM      5  O   UNL     1       2.291   3.813  -0.044  0.00  0.00    +0.000 OA
ATOM      6  N   UNL     1       1.220   1.896   0.360  0.00  0.00    +0.000 N 
ATOM      7  C   UNL     1       0.073   1.241   0.586  0.00  0.00    +0.000 C 
ATOM      8  O   UNL     1       0.121   0.039   0.758  0.00  0.00    +0.000 OA
ATOM      9  N   UNL     1      -1.125   1.840   0.626  0.00  0.00    +0.000 N 
ATOM     10  C   UNL     1      -1.254   3.171   0.448  0.00  0.00    +0.000 C 
ATOM     11  O   UNL     1      -2.347   3.704   0.491  0.00  0.00    +0.000 OA
ATOM     12  H   UNL     1       2.105   1.369   0.340  0.00  0.00    +0.000 HD
ATOM     13  H   UNL     1      -1.967   1.271   0.796  0.00  0.00    +0.000 HD
ENDBRANCH   1   3
BRANCH   1  15
ATOM     14  C   UNL     1      -1.897   6.439   1.284  0.00  0.00    +0.000 C 
ATOM     15  C   UNL     1      -1.425   6.021  -0.110  0.00  0.00    +0.000 C 
ENDBRANCH   1  15
BRANCH   2  16
ATOM     16  C   UNL     1       0.990   7.491  -0.307  0.00  0.00    +0.000 C 
BRANCH  16  17
ATOM     17  C   UNL     1       2.411   8.053  -0.379  0.00  0.00    +0.000 C 
BRANCH  17  18
ATOM     18  N   UNL     1       2.336   9.487  -0.731  0.00  0.00    +0.000 N 
ATOM     19  H   UNL     1       1.628   9.614  -1.468  0.00  0.00    +0.000 HD
BRANCH  18  20
ATOM     20  C   UNL     1       1.942  10.278   0.454  0.00  0.00    +0.000 C 
ATOM     21  C   UNL     1       1.654  11.715   0.015  0.00  0.00    +0.000 C 
ENDBRANCH  18  20
BRANCH  18  22
ATOM     22  C   UNL     1       3.644   9.952  -1.237  0.00  0.00    +0.000 C 
ATOM     23  C   UNL     1       3.814   9.466  -2.678  0.00  0.00    +0.000 C 
ENDBRANCH  18  22
ENDBRANCH  17  18
ENDBRANCH  16  17
ENDBRANCH   2  16
TORSDOF 7
ENDMDL
MODEL      904
REMARK  Name = ZINC00485559
REMARK  12 active torsions:
REMARK  status: ('A' for Active; 'I' for Inactive)
REMARK    1  A    between atoms: C_1  and  N_2
REMARK    2  A    between atoms: N_7  and  C_10
REMARK    3  A    between atoms: C_10  and  C_11
REMARK    4  A    between atoms: C_11  and  C_12
REMARK    5  A    between atoms: C_12  and  N_23
REMARK    6  A    between atoms: C_13  and  N_23
REMARK    7  A    between atoms: C_14  and  N_23
REMARK    8  A    between atoms: N_15  and  C_18
REMARK    9  A    between atoms: C_18  and  C_19
REMARK   10  A    between atoms: C_19  and  C_20
REMARK   11  A    between atoms: C_19  and  O_22
REMARK   12  A    between atoms: C_20  and  O_21
REMARK                            x       y       z     vdW  Elec       q    Type
REMARK                         _______ _______ _______ _____ _____    ______ ____
ROOT
ATOM      1  C   UNL     1       0.027   5.424   0.031  0.00  0.00    +0.000 C 
ATOM      2  N   UNL     1      -0.012   3.959   0.024  0.00  0.00    +0.000 N 
ATOM      3  C   UNL     1      -1.231   3.300   0.031  0.00  0.00    +0.000 A 
ATOM      4  C   UNL     1      -1.242   1.911   0.018  0.00  0.00    +0.000 A 
ATOM      5  C   UNL     1      -0.014   1.214   0.009  0.00  0.00    +0.000 A 
ATOM      6  O   UNL     1       0.002  -0.004   0.002  0.00  0.00    +0.000 OA
ATOM      7  N   UNL     1       1.140   1.912   0.001  0.00  0.00    +0.000 N 
ATOM      8  C   UNL     1       1.136   3.256   0.009  0.00  0.00    +0.000 A 
ATOM      9  O   UNL     1       2.196   3.852   0.002  0.00  0.00    +0.000 OA
ATOM     10  N   UNL     1      -2.570   1.535   0.034  0.00  0.00    +0.000 N 
ATOM     11  C   UNL     1      -3.300   2.668   0.047  0.00  0.00    +0.000 A 
ATOM     12  N   UNL     1      -2.503   3.706   0.045  0.00  0.00    +0.000 NA
ENDROOT
BRANCH   7  13
ATOM     13  C   UNL     1       2.417   1.195  -0.015  0.00  0.00    +0.000 C 
BRANCH  13  14
ATOM     14  C   UNL     1       2.848   0.953  -1.463  0.00  0.00    +0.000 C 
BRANCH  14  15
ATOM     15  C   UNL     1       4.182   0.204  -1.481  0.00  0.00    +0.000 C 
BRANCH  15  18
ATOM     16  C   UNL     1       4.897   1.240  -3.549  0.00  0.00    +0.000 C 
ATOM     17  C   UNL     1       5.741  -0.945  -2.934  0.00  0.00    +0.000 C 
ATOM     18  N   UNL     1       4.573  -0.041  -2.885  0.00  0.00    +0.000 N 
ATOM     19  H   UNL     1       3.786  -0.484  -3.380  0.00  0.00    +0.000 HD
ENDBRANCH  15  18
ENDBRANCH  14  15
ENDBRANCH  13  14
ENDBRANCH   7  13
BRANCH  10  20
ATOM     20  C   UNL     1      -3.088   0.165   0.031  0.00  0.00    +0.000 C 
BRANCH  20  21
ATOM     21  C   UNL     1      -3.137  -0.365   1.466  0.00  0.00    +0.000 C 
BRANCH  21  22
ATOM     22  O   UNL     1      -4.082   0.395   2.222  0.00  0.00    +0.000 OA
ATOM     23  H   UNL     1      -4.978   0.313   1.810  0.00  0.00    +0.000 HD
ENDBRANCH  21  22
BRANCH  21  24
ATOM     24  C   UNL     1      -3.558  -1.835   1.453  0.00  0.00    +0.000 C 
BRANCH  24  25
ATOM     25  O   UNL     1      -3.492  -2.362   2.779  0.00  0.00    +0.000 OA
ATOM     26  H   UNL     1      -4.100  -1.850   3.369  0.00  0.00    +0.000 HD
ENDBRANCH  24  25
ENDBRANCH  21  24
ENDBRANCH  20  21
ENDBRANCH  10  20
TORSDOF 9
ENDMDL
MODEL      905
REMARK  Name = ZINC20292668
REMARK  10 active torsions:
REMARK  status: ('A' for Active; 'I' for Inactive)
REMARK    1  A    between atoms: C_1  and  C_2
REMARK    2  A    between atoms: C_2  and  N_15
REMARK    3  A    between atoms: N_9  and  C_12
REMARK    4  A    between atoms: C_12  and  C_13
REMARK    5  A    between atoms: N_15  and  C_16
REMARK    6  A    between atoms: C_16  and  C_17
REMARK    7  A    between atoms: C_17  and  C_18
REMARK    8  A    between atoms: C_18  and  N_19
REMARK    9  A    between atoms: N_19  and  C_20
REMARK   10  A    between atoms: N_19  and  C_21
REMARK                            x       y       z     vdW  Elec       q    Type
REMARK                         _______ _______ _______ _____ _____    ______ ____
ROOT
ATOM      1  C   UNL     1       2.665   4.135   0.117  0.00  0.00    +0.000 C 
ATOM      2  C   UNL     1       1.333   3.440   0.007  0.00  0.00    +0.000 C 
ATOM      3  C   UNL     1       1.272   2.059  -0.002  0.00  0.00    +0.000 C 
ATOM      4  C   UNL     1      -0.017   1.345   0.033  0.00  0.00    +0.000 C 
ATOM      5  O   UNL     1      -1.069   1.956   0.068  0.00  0.00    +0.000 OA
ATOM      6  N   UNL     1       0.001  -0.004   0.021  0.00  0.00    +0.000 N 
ATOM      7  C   UNL     1       1.152  -0.689  -0.021  0.00  0.00    +0.000 C 
ATOM      8  O   UNL     1       1.098  -1.903  -0.029  0.00  0.00    +0.000 OA
ATOM      9  N   UNL     1       2.358  -0.106  -0.055  0.00  0.00    +0.000 N 
ATOM     10  C   UNL     1       2.494   1.236  -0.049  0.00  0.00    +0.000 C 
ATOM     11  O   UNL     1       3.595   1.753  -0.080  0.00  0.00    +0.000 OA
ATOM     12  H   UNL     1      -0.891  -0.518   0.045  0.00  0.00    +0.000 HD
ENDROOT
BRANCH   2  13
ATOM     13  N   UNL     1       0.200   4.165  -0.081  0.00  0.00    +0.000 N 
ATOM     14  H   UNL     1      -0.716   3.693  -0.075  0.00  0.00    +0.000 HD
BRANCH  13  15
ATOM     15  C   UNL     1       0.270   5.625  -0.186  0.00  0.00    +0.000 C 
BRANCH  15  16
ATOM     16  C   UNL     1      -1.145   6.199  -0.272  0.00  0.00    +0.000 C 
BRANCH  16  17
ATOM     17  C   UNL     1      -1.072   7.723  -0.381  0.00  0.00    +0.000 C 
BRANCH  17  18
ATOM     18  N   UNL     1      -2.431   8.274  -0.464  0.00  0.00    +0.000 N 
ATOM     19  C   UNL     1      -2.414   9.737  -0.332  0.00  0.00    +0.000 C 
ATOM     20  C   UNL     1      -3.089   7.866  -1.712  0.00  0.00    +0.000 C 
ATOM     21  H   UNL     1      -2.976   7.891   0.321  0.00  0.00    +0.000 HD
ENDBRANCH  17  18
ENDBRANCH  16  17
ENDBRANCH  15  16
ENDBRANCH  13  15
ENDBRANCH   2  13
BRANCH   9  22
ATOM     22  C   UNL     1       3.558  -0.946  -0.101  0.00  0.00    +0.000 C 
BRANCH  22  23
ATOM     23  C   UNL     1       3.923  -1.223  -1.537  0.00  0.00    +0.000 C 
ATOM     24  C   UNL     1       5.124  -0.935  -1.974  0.00  0.00    +0.000 C 
ENDBRANCH  22  23
ENDBRANCH   9  22
TORSDOF 7
ENDMDL
MODEL      906
REMARK  Name = ZINC20217182
REMARK  11 active torsions:
REMARK  status: ('A' for Active; 'I' for Inactive)
REMARK    1  A    between atoms: C_1  and  O_2
REMARK    2  A    between atoms: O_2  and  C_3
REMARK    3  A    between atoms: C_5  and  O_18
REMARK    4  A    between atoms: C_6  and  C_11
REMARK    5  A    between atoms: C_7  and  O_9
REMARK    6  A    between atoms: O_9  and  C_10
REMARK    7  A    between atoms: C_11  and  C_12
REMARK    8  A    between atoms: C_11  and  N_17
REMARK    9  A    between atoms: C_12  and  C_13
REMARK   10  A    between atoms: C_13  and  C_14
REMARK   11  A    between atoms: O_18  and  C_19
REMARK                            x       y       z     vdW  Elec       q    Type
REMARK                         _______ _______ _______ _____ _____    ______ ____
ROOT
ATOM      1  C   UNL     1      -2.083   2.504  -3.460  0.00  0.00    +0.000 A 
ATOM      2  C   UNL     1      -1.662   1.184  -3.395  0.00  0.00    +0.000 A 
ATOM      3  C   UNL     1      -0.991   0.725  -2.272  0.00  0.00    +0.000 A 
ATOM      4  C   UNL     1      -0.742   1.585  -1.213  0.00  0.00    +0.000 A 
ATOM      5  C   UNL     1      -1.168   2.903  -1.275  0.00  0.00    +0.000 A 
ATOM      6  C   UNL     1      -1.835   3.364  -2.400  0.00  0.00    +0.000 A 
ENDROOT
BRANCH   3   7
ATOM      7  O   UNL     1      -0.578  -0.568  -2.208  0.00  0.00    +0.000 OA
ATOM      8  C   UNL     1      -0.868  -1.398  -3.335  0.00  0.00    +0.000 C 
ENDBRANCH   3   7
BRANCH   5   9
ATOM      9  O   UNL     1      -0.928   3.745  -0.235  0.00  0.00    +0.000 OA
ATOM     10  C   UNL     1      -1.396   5.089  -0.368  0.00  0.00    +0.000 C 
ENDBRANCH   5   9
BRANCH   1  12
ATOM     11  C   UNL     1      -3.146   4.324  -4.559  0.00  0.00    +0.000 C 
ATOM     12  O   UNL     1      -2.740   2.954  -4.561  0.00  0.00    +0.000 OA
ENDBRANCH   1  12
BRANCH   4  13
ATOM     13  C   UNL     1      -0.013   1.086   0.008  0.00  0.00    +0.000 C 
BRANCH  13  14
ATOM     14  N   UNL     1      -0.700   1.560   1.217  0.00  0.00    +0.000 N 
ATOM     15  H   UNL     1      -1.667   1.203   1.225  0.00  0.00    +0.000 HD
ATOM     16  H   UNL     1      -0.715   2.590   1.223  0.00  0.00    +0.000 HD
ATOM     17  H   UNL     1      -0.203   1.219   2.051  0.00  0.00    +0.000 HD
ENDBRANCH  13  14
BRANCH  13  18
ATOM     18  C   UNL     1       1.423   1.615  -0.003  0.00  0.00    +0.000 C 
BRANCH  18  19
ATOM     19  C   UNL     1       2.199   1.009   1.168  0.00  0.00    +0.000 C 
BRANCH  19  20
ATOM     20  C   UNL     1       3.613   1.531   1.157  0.00  0.00    +0.000 C 
ATOM     21  O   UNL     1       3.963   2.308   0.301  0.00  0.00    +0.000 OA
ATOM     22  O   UNL     1       4.482   1.133   2.099  0.00  0.00    +0.000 OA
ENDBRANCH  19  20
ENDBRANCH  18  19
ENDBRANCH  13  18
ENDBRANCH   4  13
TORSDOF 8
ENDMDL
MODEL      907
REMARK  Name = ZINC05499507
REMARK  11 active torsions:
REMARK  status: ('A' for Active; 'I' for Inactive)
REMARK    1  A    between atoms: C_1  and  C_2
REMARK    2  A    between atoms: C_2  and  N_20
REMARK    3  A    between atoms: C_3  and  C_4
REMARK    4  A    between atoms: C_3  and  N_20
REMARK    5  A    between atoms: C_4  and  O_5
REMARK    6  A    between atoms: C_6  and  C_7
REMARK    7  A    between atoms: C_6  and  N_20
REMARK    8  A    between atoms: C_7  and  C_8
REMARK    9  A    between atoms: C_7  and  O_19
REMARK   10  A    between atoms: C_8  and  N_9
REMARK   11  A    between atoms: C_17  and  N_18
REMARK                            x       y       z     vdW  Elec       q    Type
REMARK                         _______ _______ _______ _____ _____    ______ ____
ROOT
ATOM      1  C   UNL     1       4.250  -1.811  -0.102  0.00  0.00    +0.000 C 
ENDROOT
BRANCH   1   2
ATOM      2  N   UNL     1       3.716  -0.447  -0.075  0.00  0.00    +0.000 N 
ATOM      3  C   UNL     1       4.445   0.705  -0.097  0.00  0.00    +0.000 A 
ATOM      4  N   UNL     1       3.650   1.734  -0.061  0.00  0.00    +0.000 NA
ATOM      5  C   UNL     1       2.364   1.310  -0.014  0.00  0.00    +0.000 A 
ATOM      6  C   UNL     1       2.392  -0.095  -0.022  0.00  0.00    +0.000 A 
ATOM      7  N   UNL     1       1.244  -0.763   0.019  0.00  0.00    +0.000 NA
ATOM      8  C   UNL     1       0.095  -0.122   0.066  0.00  0.00    +0.000 A 
ATOM      9  N   UNL     1       0.019   1.196   0.075  0.00  0.00    +0.000 NA
ATOM     10  C   UNL     1       1.114   1.949   0.037  0.00  0.00    +0.000 A 
BRANCH  10  11
ATOM     11  N   UNL     1       1.025   3.330   0.048  0.00  0.00    +0.000 N 
ATOM     12  H   UNL     1       1.886   3.893   0.018  0.00  0.00    +0.000 HD
ATOM     13  H   UNL     1       0.105   3.792   0.085  0.00  0.00    +0.000 HD
ENDBRANCH  10  11
ENDBRANCH   1   2
BRANCH   1  14
ATOM     14  C   UNL     1       4.264  -2.325  -1.544  0.00  0.00    +0.000 C 
BRANCH  14  15
ATOM     15  O   UNL     1       2.922  -2.434  -2.023  0.00  0.00    +0.000 OA
ATOM     16  H   UNL     1       2.417  -3.066  -1.453  0.00  0.00    +0.000 HD
ENDBRANCH  14  15
BRANCH  14  17
ATOM     17  C   UNL     1       4.936  -3.699  -1.589  0.00  0.00    +0.000 C 
BRANCH  17  18
ATOM     18  N   UNL     1       4.935  -4.179  -2.987  0.00  0.00    +0.000 N 
ATOM     19  H   UNL     1       4.026  -3.957  -3.417  0.00  0.00    +0.000 HD
BRANCH  18  21
ATOM     20  C   UNL     1       3.816  -6.327  -2.654  0.00  0.00    +0.000 C 
ATOM     21  C   UNL     1       5.136  -5.643  -3.018  0.00  0.00    +0.000 C 
ENDBRANCH  18  21
BRANCH  18  22
ATOM     22  C   UNL     1       6.005  -3.506  -3.753  0.00  0.00    +0.000 C 
BRANCH  22  23
ATOM     23  C   UNL     1       5.842  -3.850  -5.235  0.00  0.00    +0.000 C 
BRANCH  23  24
ATOM     24  O   UNL     1       4.606  -3.315  -5.714  0.00  0.00    +0.000 OA
ATOM     25  H   UNL     1       4.605  -2.332  -5.602  0.00  0.00    +0.000 HD
ENDBRANCH  23  24
ENDBRANCH  22  23
ENDBRANCH  18  22
ENDBRANCH  17  18
ENDBRANCH  14  17
ENDBRANCH   1  14
TORSDOF 10
ENDMDL
MODEL      908
REMARK  Name = ZINC20203310
REMARK  11 active torsions:
REMARK  status: ('A' for Active; 'I' for Inactive)
REMARK    1  A    between atoms: C_1  and  C_2
REMARK    2  A    between atoms: C_2  and  C_3
REMARK    3  A    between atoms: C_2  and  N_12
REMARK    4  A    between atoms: C_5  and  O_10
REMARK    5  A    between atoms: C_8  and  O_9
REMARK    6  A    between atoms: O_10  and  C_11
REMARK    7  A    between atoms: N_12  and  C_13
REMARK    8  A    between atoms: C_13  and  C_14
REMARK    9  A    between atoms: C_14  and  N_15
REMARK   10  A    between atoms: N_15  and  S_16
REMARK   11  A    between atoms: S_16  and  C_19
REMARK                            x       y       z     vdW  Elec       q    Type
REMARK                         _______ _______ _______ _____ _____    ______ ____
ROOT
ATOM      1  C   UNL     1      -1.705   0.534   6.627  0.00  0.00    +0.000 C 
ATOM      2  C   UNL     1      -0.856   1.673   6.060  0.00  0.00    +0.000 C 
ENDROOT
BRANCH   2   3
ATOM      3  C   UNL     1      -0.206   1.224   4.777  0.00  0.00    +0.000 A 
ATOM      4  C   UNL     1      -0.747   1.595   3.561  0.00  0.00    +0.000 A 
ATOM      5  C   UNL     1      -0.148   1.182   2.380  0.00  0.00    +0.000 A 
ATOM      6  C   UNL     1       0.991   0.392   2.420  0.00  0.00    +0.000 A 
ATOM      7  C   UNL     1       1.536   0.026   3.635  0.00  0.00    +0.000 A 
ATOM      8  C   UNL     1       0.937   0.439   4.816  0.00  0.00    +0.000 A 
BRANCH   5   9
ATOM      9  O   UNL     1      -0.682   1.547   1.184  0.00  0.00    +0.000 OA
ATOM     10  C   UNL     1      -0.013   1.086   0.008  0.00  0.00    +0.000 C 
ENDBRANCH   5   9
BRANCH   8  11
ATOM     11  O   UNL     1       1.470   0.074   6.013  0.00  0.00    +0.000 OA
ATOM     12  H   UNL     1       0.734  -0.386   6.490  0.00  0.00    +0.000 HD
ENDBRANCH   8  11
ENDBRANCH   2   3
BRANCH   2  13
ATOM     13  N   UNL     1      -1.713   2.837   5.793  0.00  0.00    +0.000 N 
ATOM     14  H   UNL     1      -1.284   3.412   5.055  0.00  0.00    +0.000 HD
ATOM     15  H   UNL     1      -2.635   2.513   5.468  0.00  0.00    +0.000 HD
BRANCH  13  16
ATOM     16  C   UNL     1      -1.885   3.651   7.003  0.00  0.00    +0.000 C 
BRANCH  16  17
ATOM     17  C   UNL     1      -2.781   4.851   6.687  0.00  0.00    +0.000 C 
BRANCH  17  18
ATOM     18  N   UNL     1      -2.953   5.664   7.894  0.00  0.00    +0.000 NA
ATOM     19  H   UNL     1      -2.700   5.278   8.815  0.00  0.00    +0.000 HD
BRANCH  18  20
ATOM     20  S   UNL     1      -3.554   7.202   7.777  0.00  0.00    +0.000 S 
ATOM     21  O   UNL     1      -3.561   7.691   9.111  0.00  0.00    +0.000 OA
ATOM     22  O   UNL     1      -2.757   7.828   6.780  0.00  0.00    +0.000 OA
ATOM     23  C   UNL     1      -5.254   6.995   7.179  0.00  0.00    +0.000 C 
ENDBRANCH  18  20
ENDBRANCH  17  18
ENDBRANCH  16  17
ENDBRANCH  13  16
ENDBRANCH   2  13
TORSDOF 8
ENDMDL
MODEL      909
REMARK  Name = ZINC06662356
REMARK  11 active torsions:
REMARK  status: ('A' for Active; 'I' for Inactive)
REMARK    1  A    between atoms: C_1  and  C_2
REMARK    2  A    between atoms: C_2  and  N_15
REMARK    3  A    between atoms: C_3  and  C_4
REMARK    4  A    between atoms: C_3  and  N_15
REMARK    5  A    between atoms: C_5  and  C_6
REMARK    6  A    between atoms: C_5  and  N_15
REMARK    7  A    between atoms: C_6  and  C_7
REMARK    8  A    between atoms: C_6  and  O_14
REMARK    9  A    between atoms: C_7  and  N_8
REMARK   10  A    between atoms: N_8  and  C_9
REMARK   11  A    between atoms: N_8  and  S_10
REMARK                            x       y       z     vdW  Elec       q    Type
REMARK                         _______ _______ _______ _____ _____    ______ ____
ROOT
ATOM      1  C   UNL     1      -0.504   2.299  -1.109  0.00  0.00    +0.000 C 
ENDROOT
BRANCH   1   2
ATOM      2  O   UNL     1      -0.609   3.691  -0.801  0.00  0.00    +0.000 OA
ATOM      3  H   UNL     1       0.296   4.071  -0.676  0.00  0.00    +0.000 HD
ENDBRANCH   1   2
BRANCH   1   4
ATOM      4  C   UNL     1       0.199   1.574   0.041  0.00  0.00    +0.000 C 
BRANCH   4   5
ATOM      5  N   UNL     1      -0.644   1.671   1.252  0.00  0.00    +0.000 N 
ATOM      6  H   UNL     1      -0.892   2.658   1.409  0.00  0.00    +0.000 HD
BRANCH   5   7
ATOM      7  C   UNL     1       0.100   1.170   2.426  0.00  0.00    +0.000 C 
ATOM      8  C   UNL     1      -0.631   1.612   3.696  0.00  0.00    +0.000 C 
ENDBRANCH   5   7
BRANCH   5  10
ATOM      9  C   UNL     1      -1.556  -0.582   0.798  0.00  0.00    +0.000 C 
ATOM     10  C   UNL     1      -1.884   0.888   1.067  0.00  0.00    +0.000 C 
ENDBRANCH   5  10
ENDBRANCH   4   5
ENDBRANCH   1   4
BRANCH   1  11
ATOM     11  C   UNL     1       0.306   2.121  -2.394  0.00  0.00    +0.000 C 
BRANCH  11  12
ATOM     12  N   UNL     1      -0.366   2.815  -3.495  0.00  0.00    +0.000 NA
ATOM     13  C   UNL     1      -0.132   4.245  -3.712  0.00  0.00    +0.000 C 
BRANCH  12  14
ATOM     14  S   UNL     1      -1.392   1.984  -4.495  0.00  0.00    +0.000 S 
ATOM     15  O   UNL     1      -1.437   2.702  -5.720  0.00  0.00    +0.000 OA
ATOM     16  O   UNL     1      -1.007   0.618  -4.426  0.00  0.00    +0.000 OA
ATOM     17  O   UNL     1      -2.784   2.074  -3.886  0.00  0.00    +0.000 OA
ENDBRANCH  12  14
ENDBRANCH  11  12
ENDBRANCH   1  11
TORSDOF 8
ENDMDL
MODEL      910
REMARK  Name = ZINC27792258
REMARK  9 active torsions:
REMARK  status: ('A' for Active; 'I' for Inactive)
REMARK    1  A    between atoms: C_1  and  C_2
REMARK    2  A    between atoms: C_2  and  C_3
REMARK    3  A    between atoms: C_2  and  N_17
REMARK    4  A    between atoms: C_3  and  C_4
REMARK    5  A    between atoms: C_3  and  S_10
REMARK    6  A    between atoms: S_10  and  C_11
REMARK    7  A    between atoms: C_11  and  C_12
REMARK    8  A    between atoms: C_12  and  C_13
REMARK    9  A    between atoms: C_12  and  N_16
REMARK                            x       y       z     vdW  Elec       q    Type
REMARK                         _______ _______ _______ _____ _____    ______ ____
ROOT
ATOM      1  C   UNK     1       0.059   1.018   0.105  0.00  0.00    +0.000 C 
ENDROOT
BRANCH   1   2
ATOM      2  C   UNK     1      -0.873   0.868  -1.070  0.00  0.00    +0.000 A 
ATOM      3  C   UNK     1      -1.313   1.988  -1.750  0.00  0.00    +0.000 A 
ATOM      4  C   UNK     1      -2.165   1.851  -2.830  0.00  0.00    +0.000 A 
ATOM      5  C   UNK     1      -2.583   0.594  -3.225  0.00  0.00    +0.000 A 
ATOM      6  C   UNK     1      -2.147  -0.526  -2.542  0.00  0.00    +0.000 A 
ATOM      7  C   UNK     1      -1.292  -0.389  -1.464  0.00  0.00    +0.000 A 
ENDBRANCH   1   2
BRANCH   1   9
ATOM      8  C   UNK     1       1.875  -0.173  -1.130  0.00  0.00    +0.000 C 
ATOM      9  C   UNK     1       1.501   1.117  -0.397  0.00  0.00    +0.000 C 
BRANCH   9  10
ATOM     10  N   UNK     1       1.622   2.253  -1.314  0.00  0.00    +0.000 N 
ATOM     11  O   UNK     1       2.283   3.225  -0.996  0.00  0.00    +0.000 OA
ATOM     12  O   UNK     1       1.061   2.225  -2.395  0.00  0.00    +0.000 OA
ENDBRANCH   9  10
ENDBRANCH   1   9
BRANCH   1  13
ATOM     13  S   UNK     1      -0.365   2.523   1.025  0.00  0.00    +0.000 S 
BRANCH  13  14
ATOM     14  C   UNK     1       0.681   2.442   2.505  0.00  0.00    +0.000 C 
BRANCH  14  15
ATOM     15  C   UNK     1       0.329   3.599   3.442  0.00  0.00    +0.000 C 
BRANCH  15  16
ATOM     16  N   UNK     1      -1.047   3.433   3.930  0.00  0.00    +0.000 N 
ATOM     17  H   UNK     1      -1.126   2.542   4.440  0.00  0.00    +0.000 HD
ATOM     18  H   UNK     1      -1.697   3.429   3.131  0.00  0.00    +0.000 HD
ATOM     19  H   UNK     1      -1.284   4.211   4.561  0.00  0.00    +0.000 HD
ENDBRANCH  15  16
BRANCH  15  20
ATOM     20  C   UNK     1       1.279   3.604   4.612  0.00  0.00    +0.000 C 
ATOM     21  O   UNK     1       0.937   3.135   5.671  0.00  0.00    +0.000 OA
ATOM     22  O   UNK     1       2.506   4.131   4.477  0.00  0.00    +0.000 OA
ENDBRANCH  15  20
ENDBRANCH  14  15
ENDBRANCH  13  14
ENDBRANCH   1  13
TORSDOF 8
ENDMDL
MODEL      911
REMARK  Name = ZINC06382443
REMARK  9 active torsions:
REMARK  status: ('A' for Active; 'I' for Inactive)
REMARK    1  A    between atoms: C_1  and  C_2
REMARK    2  A    between atoms: C_2  and  N_19
REMARK    3  A    between atoms: C_3  and  C_4
REMARK    4  A    between atoms: C_3  and  N_19
REMARK    5  A    between atoms: C_5  and  C_6
REMARK    6  A    between atoms: C_5  and  N_19
REMARK    7  A    between atoms: C_6  and  C_7
REMARK    8  A    between atoms: C_6  and  O_18
REMARK    9  A    between atoms: C_7  and  N_8
REMARK                            x       y       z     vdW  Elec       q    Type
REMARK                         _______ _______ _______ _____ _____    ______ ____
ROOT
ATOM      1  C   UNL     1      -0.553   1.823  -1.411  0.00  0.00    +0.000 C 
ENDROOT
BRANCH   1   2
ATOM      2  N   UNL     1      -1.866   1.218  -1.645  0.00  0.00    +0.000 N 
ATOM      3  C   UNL     1      -2.607   1.604  -2.703  0.00  0.00    +0.000 C 
ATOM      4  N   UNL     1      -2.178   2.530  -3.541  0.00  0.00    +0.000 NA
ATOM      5  C   UNL     1      -2.887   2.993  -4.564  0.00  0.00    +0.000 C 
ATOM      6  N   UNL     1      -4.200   2.816  -4.659  0.00  0.00    +0.000 NA
ATOM      7  C   UNL     1      -4.755   2.079  -3.698  0.00  0.00    +0.000 C 
ATOM      8  N   UNL     1      -5.886   2.163  -3.033  0.00  0.00    +0.000 NA
ATOM      9  C   UNL     1      -5.856   1.429  -1.913  0.00  0.00    +0.000 C 
ATOM     10  N   UNL     1      -4.755   0.747  -1.772  0.00  0.00    +0.000 NA
ATOM     11  C   UNL     1      -3.960   1.001  -2.971  0.00  0.00    +0.000 C 
ATOM     12  H   UNL     1      -2.222   0.497  -1.002  0.00  0.00    +0.000 HD
ENDBRANCH   1   2
BRANCH   1  13
ATOM     13  C   UNL     1       0.074   1.213  -0.156  0.00  0.00    +0.000 C 
BRANCH  13  14
ATOM     14  O   UNL     1      -0.772   1.461   0.968  0.00  0.00    +0.000 OA
ATOM     15  H   UNL     1      -0.878   2.437   1.094  0.00  0.00    +0.000 HD
ENDBRANCH  13  14
BRANCH  13  16
ATOM     16  C   UNL     1       1.446   1.846   0.089  0.00  0.00    +0.000 C 
BRANCH  16  17
ATOM     17  N   UNL     1       2.086   1.162   1.232  0.00  0.00    +0.000 N 
ATOM     18  H   UNL     1       1.965   0.145   1.125  0.00  0.00    +0.000 HD
BRANCH  17  19
ATOM     19  C   UNL     1       1.452   1.591   2.497  0.00  0.00    +0.000 C 
ATOM     20  C   UNL     1       1.467   3.116   2.614  0.00  0.00    +0.000 C 
ENDBRANCH  17  19
BRANCH  17  22
ATOM     21  C   UNL     1       4.228   0.483   2.197  0.00  0.00    +0.000 C 
ATOM     22  C   UNL     1       3.531   1.473   1.261  0.00  0.00    +0.000 C 
ENDBRANCH  17  22
ENDBRANCH  16  17
ENDBRANCH  13  16
ENDBRANCH   1  13
TORSDOF 7
ENDMDL
MODEL      912
REMARK  Name = ZINC19752017
REMARK  9 active torsions:
REMARK  status: ('A' for Active; 'I' for Inactive)
REMARK    1  A    between atoms: C_1  and  O_2
REMARK    2  A    between atoms: O_2  and  C_3
REMARK    3  A    between atoms: C_8  and  O_9
REMARK    4  A    between atoms: O_9  and  C_10
REMARK    5  A    between atoms: N_11  and  C_16
REMARK    6  A    between atoms: C_12  and  C_14
REMARK    7  A    between atoms: C_14  and  N_15
REMARK    8  A    between atoms: C_16  and  C_17
REMARK    9  A    between atoms: C_17  and  C_18
REMARK                            x       y       z     vdW  Elec       q    Type
REMARK                         _______ _______ _______ _____ _____    ______ ____
ROOT
ATOM      1  C   UNL     1      -0.787   2.893   1.346  0.00  0.00    +0.000 A 
ATOM      2  C   UNL     1      -0.260   3.742   0.396  0.00  0.00    +0.000 A 
ATOM      3  C   UNL     1      -0.369   5.126   0.564  0.00  0.00    +0.000 A 
ATOM      4  C   UNL     1      -1.017   5.638   1.700  0.00  0.00    +0.000 A 
ATOM      5  C   UNL     1      -1.544   4.774   2.649  0.00  0.00    +0.000 A 
ATOM      6  C   UNL     1      -1.435   3.408   2.471  0.00  0.00    +0.000 A 
ATOM      7  N   UNL     1      -0.964   7.015   1.580  0.00  0.00    +0.000 N 
ATOM      8  C   UNL     1      -0.311   7.295   0.419  0.00  0.00    +0.000 A 
ATOM      9  N   UNL     1       0.037   6.191  -0.175  0.00  0.00    +0.000 NA
ENDROOT
BRANCH   6  10
ATOM     10  O   UNL     1      -1.956   2.561   3.399  0.00  0.00    +0.000 OA
ATOM     11  C   UNL     1      -2.606   3.152   4.526  0.00  0.00    +0.000 C 
ENDBRANCH   6  10
BRANCH   1  13
ATOM     12  C   UNL     1      -0.013   1.086   0.008  0.00  0.00    +0.000 C 
ATOM     13  O   UNL     1      -0.682   1.547   1.184  0.00  0.00    +0.000 OA
ENDBRANCH   1  13
BRANCH   8  14
ATOM     14  C   UNL     1      -0.032   8.681  -0.102  0.00  0.00    +0.000 C 
BRANCH  14  15
ATOM     15  N   UNL     1      -1.147   9.119  -0.952  0.00  0.00    +0.000 N 
ATOM     16  H   UNL     1      -2.017   9.129  -0.400  0.00  0.00    +0.000 HD
ATOM     17  H   UNL     1      -1.251   8.470  -1.744  0.00  0.00    +0.000 HD
ATOM     18  H   UNL     1      -0.957  10.066  -1.308  0.00  0.00    +0.000 HD
ENDBRANCH  14  15
ENDBRANCH   8  14
BRANCH   7  19
ATOM     19  C   UNL     1      -1.510   7.990   2.527  0.00  0.00    +0.000 C 
BRANCH  19  20
ATOM     20  C   UNL     1      -2.956   8.316   2.147  0.00  0.00    +0.000 C 
BRANCH  20  21
ATOM     21  C   UNL     1      -3.517   9.320   3.121  0.00  0.00    +0.000 C 
ATOM     22  O   UNL     1      -2.831   9.732   4.026  0.00  0.00    +0.000 OA
ATOM     23  O   UNL     1      -4.779   9.755   2.983  0.00  0.00    +0.000 OA
ENDBRANCH  20  21
ENDBRANCH  19  20
ENDBRANCH   7  19
TORSDOF 7
ENDMDL
MODEL      913
REMARK  Name = ZINC01727791
REMARK  9 active torsions:
REMARK  status: ('A' for Active; 'I' for Inactive)
REMARK    1  A    between atoms: C_1  and  N_2
REMARK    2  A    between atoms: N_2  and  C_3
REMARK    3  A    between atoms: N_2  and  N_4
REMARK    4  A    between atoms: C_5  and  C_7
REMARK    5  A    between atoms: C_7  and  C_8
REMARK    6  A    between atoms: C_8  and  C_9
REMARK    7  A    between atoms: C_8  and  N_19
REMARK    8  A    between atoms: C_11  and  C_12
REMARK    9  A    between atoms: C_11  and  N_19
REMARK                            x       y       z     vdW  Elec       q    Type
REMARK                         _______ _______ _______ _____ _____    ______ ____
ROOT
ATOM      1  C   UNK A   1      -0.018   1.465   0.010  0.00  0.00    +0.000 C 
ENDROOT
BRANCH   1   2
ATOM      2  C   UNK A   1      -0.747   1.964  -1.211  0.00  0.00    +0.000 C 
ATOM      3  O   UNK A   1      -1.203   1.177  -2.006  0.00  0.00    +0.000 OA
ATOM      4  O   UNK A   1      -0.889   3.283  -1.415  0.00  0.00    +0.000 OA
ENDBRANCH   1   2
BRANCH   1   5
ATOM      5  N   UNK A   1      -0.005  -0.010   0.007  0.00  0.00    +0.000 N 
ATOM      6  H   UNK A   1       0.087  -0.353   0.974  0.00  0.00    +0.000 HD
ATOM      7  H   UNK A   1      -0.888  -0.359  -0.391  0.00  0.00    +0.000 HD
BRANCH   5   8
ATOM      8  C   UNK A   0       1.125  -0.511  -0.798  0.00  0.00    +0.000 C 
BRANCH   8   9
ATOM      9  C   UNK A   0       1.113  -2.018  -0.783  0.00  0.00    +0.000 A 
ATOM     10  C   UNK A   0       1.808  -2.705   0.195  0.00  0.00    +0.000 A 
ATOM     11  C   UNK A   0       1.792  -4.087   0.212  0.00  0.00    +0.000 A 
ATOM     12  C   UNK A   0       1.090  -4.782  -0.755  0.00  0.00    +0.000 A 
ATOM     13  C   UNK A   0       0.400  -4.095  -1.737  0.00  0.00    +0.000 A 
ATOM     14  C   UNK A   0       0.411  -2.713  -1.750  0.00  0.00    +0.000 A 
ENDBRANCH   8   9
ENDBRANCH   5   8
ENDBRANCH   1   5
BRANCH   1  15
ATOM     15  C   UNK A   1      -0.734   1.958   1.269  0.00  0.00    +0.000 C 
BRANCH  15  17
ATOM     16  N   UNK A   1      -0.380   1.894   3.716  0.00  0.00    +0.000 N 
ATOM     17  C   UNK A   1       0.061   1.564   2.487  0.00  0.00    +0.000 C 
ATOM     18  O   UNK A   1       1.099   0.948   2.360  0.00  0.00    +0.000 OA
ATOM     19  H   UNK A   1      -1.261   2.417   3.824  0.00  0.00    +0.000 HD
BRANCH  16  21
ATOM     20  C   UNK A   1       0.750   2.720   5.588  0.00  0.00    +0.000 C 
ATOM     21  N   UNK A   1       0.341   1.537   4.820  0.00  0.00    +0.000 NA
ATOM     22  C   UNK A   1      -0.415   0.599   5.661  0.00  0.00    +0.000 C 
ENDBRANCH  16  21
ENDBRANCH  15  17
ENDBRANCH   1  15
TORSDOF 7
ENDMDL
MODEL      914
REMARK  Name = ZINC20229372
REMARK  9 active torsions:
REMARK  status: ('A' for Active; 'I' for Inactive)
REMARK    1  A    between atoms: C_1  and  N_2
REMARK    2  A    between atoms: N_2  and  C_3
REMARK    3  A    between atoms: N_2  and  C_4
REMARK    4  A    between atoms: C_4  and  C_5
REMARK    5  A    between atoms: C_5  and  N_6
REMARK    6  A    between atoms: C_7  and  C_9
REMARK    7  A    between atoms: C_13  and  O_15
REMARK    8  A    between atoms: O_15  and  C_16
REMARK    9  A    between atoms: C_16  and  C_17
REMARK                            x       y       z     vdW  Elec       q    Type
REMARK                         _______ _______ _______ _____ _____    ______ ____
ROOT
ATOM      1  C   UNL     1      -0.049   3.848   0.023  0.00  0.00    +0.000 A 
ATOM      2  C   UNL     1       1.166   3.161   0.007  0.00  0.00    +0.000 A 
ATOM      3  C   UNL     1       1.177   1.781   0.000  0.00  0.00    +0.000 A 
ATOM      4  C   UNL     1      -0.013   1.076   0.008  0.00  0.00    +0.000 A 
ATOM      5  C   UNL     1      -1.225   1.751   0.017  0.00  0.00    +0.000 A 
ATOM      6  C   UNL     1      -1.248   3.136   0.031  0.00  0.00    +0.000 A 
ENDROOT
BRANCH   1   8
ATOM      7  N   UNL     1       1.096   6.013   0.023  0.00  0.00    +0.000 N 
ATOM      8  C   UNL     1      -0.064   5.327   0.031  0.00  0.00    +0.000 C 
ATOM      9  O   UNL     1      -1.123   5.923   0.044  0.00  0.00    +0.000 OA
ATOM     10  H   UNL     1       1.993   5.507   0.012  0.00  0.00    +0.000 HD
BRANCH   7  11
ATOM     11  C   UNL     1       1.080   7.478   0.031  0.00  0.00    +0.000 C 
BRANCH  11  12
ATOM     12  C   UNL     1       2.517   8.003   0.021  0.00  0.00    +0.000 C 
BRANCH  12  14
ATOM     13  C   UNL     1       1.952   9.986   1.290  0.00  0.00    +0.000 C 
ATOM     14  N   UNL     1       2.502   9.472   0.029  0.00  0.00    +0.000 N 
ATOM     15  C   UNL     1       3.845  10.014  -0.220  0.00  0.00    +0.000 C 
ATOM     16  H   UNL     1       1.887   9.786  -0.736  0.00  0.00    +0.000 HD
ENDBRANCH  12  14
ENDBRANCH  11  12
ENDBRANCH   7  11
ENDBRANCH   1   8
BRANCH   5  17
ATOM     17  O   UNL     1      -2.392   1.053   0.019  0.00  0.00    +0.000 OA
BRANCH  17  18
ATOM     18  C   UNL     1      -2.294  -0.373   0.011  0.00  0.00    +0.000 C 
BRANCH  18  19
ATOM     19  C   UNL     1      -3.677  -0.971   0.014  0.00  0.00    +0.000 C 
ATOM     20  O   UNL     1      -4.647  -0.250   0.023  0.00  0.00    +0.000 OA
ATOM     21  O   UNL     1      -3.832  -2.304   0.008  0.00  0.00    +0.000 OA
ENDBRANCH  18  19
ENDBRANCH  17  18
ENDBRANCH   5  17
TORSDOF 7
ENDMDL
MODEL      915
REMARK  Name = ZINC05258739
REMARK  7 active torsions:
REMARK  status: ('A' for Active; 'I' for Inactive)
REMARK    1  A    between atoms: C_2  and  C_3
REMARK    2  A    between atoms: C_3  and  N_19
REMARK    3  A    between atoms: CA_4  and  C_5
REMARK    4  A    between atoms: CA_4  and  C_17
REMARK    5  A    between atoms: CA_4  and  N_19
REMARK    6  A    between atoms: C_5  and  C_6
REMARK    7  A    between atoms: N_8  and  C_9
REMARK                            x       y       z     vdW  Elec       q    Type
REMARK                         _______ _______ _______ _____ _____    ______ ____
ROOT
ATOM      1  C   UNL     1       2.426  -0.241   0.078  0.00  0.00    +0.000 C 
ATOM      2  O   UNL     1       1.387  -0.866   0.085  0.00  0.00    +0.000 OA
ATOM      3  N   UNL     1       2.404   1.103  -0.015  0.00  0.00    +0.000 N 
ATOM      4  H   UNL     1       3.285   1.629  -0.107  0.00  0.00    +0.000 HD
ENDROOT
BRANCH   3   5
ATOM      5  C   UNL     1       1.180   1.787   0.012  0.00  0.00    +0.000 A 
ATOM      6  C   UNL     1       0.077   1.213   0.627  0.00  0.00    +0.000 A 
ATOM      7  C   UNL     1      -1.130   1.885   0.647  0.00  0.00    +0.000 A 
ATOM      8  C   UNL     1      -1.237   3.137   0.065  0.00  0.00    +0.000 A 
ATOM      9  C   UNL     1      -0.138   3.713  -0.550  0.00  0.00    +0.000 A 
ATOM     10  C   UNL     1       1.071   3.041  -0.578  0.00  0.00    +0.000 A 
ATOM     11  F   UNL     1       2.143   3.603  -1.178  0.00  0.00    +0.000 F 
ATOM     12  F   UNL     1      -2.417   3.795   0.091  0.00  0.00    +0.000 F 
ENDBRANCH   3   5
BRANCH   1  13
ATOM     13  C   UNL     1       3.743  -0.967   0.175  0.00  0.00    +0.000 C 
BRANCH  13  14
ATOM     14  CA  UNL     1       3.490  -2.473   0.270  0.00  0.00    +0.000 C 
BRANCH  14  15
ATOM     15  N   UNL     1       2.877  -2.941  -0.987  0.00  0.00    +0.000 N 
ATOM     16  H1  UNL     1       3.617  -3.136  -1.676  0.00  0.00    +0.000 HD
ATOM     17  H2  UNL     1       2.257  -2.207  -1.358  0.00  0.00    +0.000 HD
BRANCH  15  18
ATOM     18  C   UNL     1       2.094  -4.169  -0.750  0.00  0.00    +0.000 C 
BRANCH  18  20
ATOM     19  C   UNL     1       1.694  -5.840  -2.484  0.00  0.00    +0.000 C 
ATOM     20  C   UNL     1       1.481  -4.623  -2.049  0.00  0.00    +0.000 C 
ENDBRANCH  18  20
ENDBRANCH  15  18
ENDBRANCH  14  15
BRANCH  14  21
ATOM     21  C   UNL     1       4.797  -3.190   0.490  0.00  0.00    +0.000 C 
ATOM     22  O   UNL     1       5.178  -4.010  -0.311  0.00  0.00    +0.000 OA
ATOM     23  OXT UNL     1       5.538  -2.917   1.575  0.00  0.00    +0.000 OA
ENDBRANCH  14  21
ENDBRANCH  13  14
ENDBRANCH   1  13
TORSDOF 7
ENDMDL
MODEL      916
REMARK  Name = ZINC01579519
REMARK  6 active torsions:
REMARK  status: ('A' for Active; 'I' for Inactive)
REMARK    1  A    between atoms: C_1  and  C_2
REMARK    2  A    between atoms: C_7  and  C_8
REMARK    3  A    between atoms: C_7  and  N_16
REMARK    4  A    between atoms: C_8  and  C_9
REMARK    5  A    between atoms: C_9  and  N_10
REMARK    6  A    between atoms: N_12  and  N_13
REMARK                            x       y       z     vdW  Elec       q    Type
REMARK                         _______ _______ _______ _____ _____    ______ ____
ROOT
ATOM      1  C   UNL     1       4.337   4.293  -0.853  0.00  0.00    +0.000 C 
ENDROOT
BRANCH   1   2
ATOM      2  N   UNL     1       3.601   5.377  -1.508  0.00  0.00    +0.000 N 
ATOM      3  C   UNL     1       4.258   6.522  -1.889  0.00  0.00    +0.000 C 
ATOM      4  N   UNL     1       3.567   7.539  -2.504  0.00  0.00    +0.000 N 
ATOM      5  N   UNL     1       5.556   6.587  -1.629  0.00  0.00    +0.000 NA
ATOM      6  H   UNL     1       2.591   5.280  -1.684  0.00  0.00    +0.000 HD
ATOM      7  H   UNL     1       2.541   7.497  -2.571  0.00  0.00    +0.000 HD
ATOM      8  H   UNL     1       6.062   5.821  -1.163  0.00  0.00    +0.000 HD
BRANCH   4   9
ATOM      9  N   UNL     1       4.260   8.633  -3.040  0.00  0.00    +0.000 N 
ATOM     10  O   UNL     1       5.408   8.498  -3.425  0.00  0.00    +0.000 OA
ATOM     11  O   UNL     1       3.715   9.719  -3.121  0.00  0.00    +0.000 OA
ENDBRANCH   4   9
ENDBRANCH   1   2
BRANCH   1  12
ATOM     12  C   UNL     1       3.378   3.144  -0.536  0.00  0.00    +0.000 C 
BRANCH  12  13
ATOM     13  C   UNL     1       4.147   2.012   0.148  0.00  0.00    +0.000 C 
BRANCH  13  20
ATOM     14  C   UNL     1       4.924  -0.637  -0.399  0.00  0.00    +0.000 C 
ATOM     15  C   UNL     1       3.964  -0.326   0.751  0.00  0.00    +0.000 C 
ATOM     16  C   UNL     1       2.978  -1.484   0.919  0.00  0.00    +0.000 C 
ATOM     17  C   UNL     1       2.007  -1.159   2.058  0.00  0.00    +0.000 C 
ATOM     18  C   UNL     1       1.287   0.155   1.746  0.00  0.00    +0.000 C 
ATOM     19  C   UNL     1       2.322   1.266   1.553  0.00  0.00    +0.000 C 
ATOM     20  N   UNL     1       3.210   0.904   0.428  0.00  0.00    +0.000 N 
ATOM     21  H   UNL     1       2.635   0.732  -0.409  0.00  0.00    +0.000 HD
ENDBRANCH  13  20
ENDBRANCH  12  13
ENDBRANCH   1  12
TORSDOF 5
ENDMDL
MODEL      917
REMARK  Name = ZINC01635054
REMARK  9 active torsions:
REMARK  status: ('A' for Active; 'I' for Inactive)
REMARK    1  A    between atoms: C_1  and  N_21
REMARK    2  A    between atoms: C_2  and  N_21
REMARK    3  A    between atoms: C_3  and  C_4
REMARK    4  A    between atoms: C_3  and  N_21
REMARK    5  A    between atoms: C_4  and  C_5
REMARK    6  A    between atoms: C_5  and  N_6
REMARK    7  A    between atoms: N_9  and  N_10
REMARK    8  A    between atoms: C_11  and  C_12
REMARK    9  A    between atoms: C_16  and  N_18
REMARK                            x       y       z     vdW  Elec       q    Type
REMARK                         _______ _______ _______ _____ _____    ______ ____
ROOT
ATOM      1  N   UNL     1      -3.555   7.322   0.072  0.00  0.00    +0.000 N 
ATOM      2  C   UNL     1      -2.397   8.012   0.065  0.00  0.00    +0.000 C 
ATOM      3  O   UNL     1      -2.414   9.228   0.071  0.00  0.00    +0.000 OA
ATOM      4  N   UNL     1      -1.221   7.354   0.050  0.00  0.00    +0.000 N 
ATOM      5  H   UNL     1      -3.541   6.292   0.067  0.00  0.00    +0.000 HD
ATOM      6  H   UNL     1      -0.336   7.881   0.045  0.00  0.00    +0.000 HD
ENDROOT
BRANCH   4   7
ATOM      7  N   UNL     1      -1.202   5.953   0.043  0.00  0.00    +0.000 NA
ATOM      8  C   UNL     1      -0.070   5.320   0.029  0.00  0.00    +0.000 C 
BRANCH   8   9
ATOM      9  C   UNL     1      -0.050   3.845   0.022  0.00  0.00    +0.000 A 
ATOM     10  C   UNL     1      -1.248   3.127   0.030  0.00  0.00    +0.000 A 
ATOM     11  C   UNL     1      -1.222   1.748   0.017  0.00  0.00    +0.000 A 
ATOM     12  C   UNL     1      -0.013   1.076   0.008  0.00  0.00    +0.000 A 
ATOM     13  C   UNL     1       1.178   1.780   0.000  0.00  0.00    +0.000 A 
ATOM     14  C   UNL     1       1.167   3.160   0.007  0.00  0.00    +0.000 A 
BRANCH  13  15
ATOM     15  N   UNL     1       2.467   1.053  -0.015  0.00  0.00    +0.000 N 
ATOM     16  O   UNL     1       2.478  -0.165  -0.022  0.00  0.00    +0.000 OA
ATOM     17  O   UNL     1       3.516   1.672  -0.022  0.00  0.00    +0.000 OA
ENDBRANCH  13  15
ENDBRANCH   8   9
ENDBRANCH   4   7
BRANCH   1  18
ATOM     18  C   UNL     1      -4.834   8.037   0.088  0.00  0.00    +0.000 C 
BRANCH  18  19
ATOM     19  C   UNL     1      -5.983   7.027   0.093  0.00  0.00    +0.000 C 
BRANCH  19  20
ATOM     20  C   UNL     1      -7.318   7.774   0.110  0.00  0.00    +0.000 C 
BRANCH  20  23
ATOM     21  C   UNL     1      -9.707   7.470   0.369  0.00  0.00    +0.000 C 
ATOM     22  C   UNL     1      -8.461   6.045  -1.142  0.00  0.00    +0.000 C 
ATOM     23  N   UNL     1      -8.417   6.786   0.136  0.00  0.00    +0.000 N 
ATOM     24  H   UNL     1      -8.249   6.120   0.904  0.00  0.00    +0.000 HD
ENDBRANCH  20  23
ENDBRANCH  19  20
ENDBRANCH  18  19
ENDBRANCH   1  18
TORSDOF 7
ENDMDL
MODEL      918
REMARK  Name = ZINC26481980
REMARK  8 active torsions:
REMARK  status: ('A' for Active; 'I' for Inactive)
REMARK    1  A    between atoms: C_1  and  O_2
REMARK    2  A    between atoms: O_2  and  C_3
REMARK    3  A    between atoms: C_5  and  C_13
REMARK    4  A    between atoms: C_8  and  O_9
REMARK    5  A    between atoms: O_9  and  C_10
REMARK    6  A    between atoms: C_10  and  C_11
REMARK    7  A    between atoms: C_11  and  O_12
REMARK    8  A    between atoms: C_13  and  N_14
REMARK                            x       y       z     vdW  Elec       q    Type
REMARK                         _______ _______ _______ _____ _____    ______ ____
ROOT
ATOM      1  C   UNL     1       3.990  -0.569  -1.239  0.00  0.00    +0.000 A 
ATOM      2  C   UNL     1       2.925   0.317  -1.222  0.00  0.00    +0.000 A 
ATOM      3  C   UNL     1       2.406   0.752  -0.017  0.00  0.00    +0.000 A 
ATOM      4  C   UNL     1       2.951   0.309   1.174  0.00  0.00    +0.000 A 
ATOM      5  C   UNL     1       4.011  -0.580   1.164  0.00  0.00    +0.000 A 
ATOM      6  C   UNL     1       4.535  -1.019  -0.041  0.00  0.00    +0.000 A 
ENDROOT
BRANCH   1   8
ATOM      7  C   UNL     1       3.891  -0.494  -3.614  0.00  0.00    +0.000 C 
ATOM      8  O   UNL     1       4.501  -0.997  -2.424  0.00  0.00    +0.000 OA
ENDBRANCH   1   8
BRANCH   6   9
ATOM      9  O   UNL     1       5.581  -1.888  -0.052  0.00  0.00    +0.000 OA
BRANCH   9  10
ATOM     10  C   UNL     1       6.090  -2.308   1.216  0.00  0.00    +0.000 C 
BRANCH  10  11
ATOM     11  C   UNL     1       7.255  -3.277   1.003  0.00  0.00    +0.000 C 
BRANCH  11  12
ATOM     12  O   UNL     1       8.336  -2.589   0.371  0.00  0.00    +0.000 OA
ATOM     13  H   UNL     1       8.632  -1.839   0.945  0.00  0.00    +0.000 HD
ENDBRANCH  11  12
ENDBRANCH  10  11
ENDBRANCH   9  10
ENDBRANCH   6   9
BRANCH   3  14
ATOM     14  C   UNL     1       1.248   1.716  -0.001  0.00  0.00    +0.000 C 
BRANCH  14  15
ATOM     15  N   UNL     1      -0.011   0.966   0.007  0.00  0.00    +0.000 N 
ATOM     16  C   UNL     1      -1.230   1.647   0.017  0.00  0.00    +0.000 A 
ATOM     17  N   UNL     1      -2.428   1.101   0.020  0.00  0.00    +0.000 NA
ATOM     18  N   UNL     1      -3.339   2.170   0.039  0.00  0.00    +0.000 NA
ATOM     19  N   UNL     1      -2.647   3.257   0.032  0.00  0.00    +0.000 NA
ATOM     20  N   UNL     1      -1.393   2.971   0.024  0.00  0.00    +0.000 NA
ATOM     21  H   UNL     1       0.003  -0.064   0.006  0.00  0.00    +0.000 HD
ENDBRANCH  14  15
ENDBRANCH   3  14
TORSDOF 7
ENDMDL
MODEL      919
REMARK  Name = ZINC11569225
REMARK  8 active torsions:
REMARK  status: ('A' for Active; 'I' for Inactive)
REMARK    1  A    between atoms: C_1  and  O_2
REMARK    2  A    between atoms: O_2  and  C_3
REMARK    3  A    between atoms: C_3  and  C_4
REMARK    4  A    between atoms: C_4  and  N_5
REMARK    5  A    between atoms: C_6  and  C_8
REMARK    6  A    between atoms: C_8  and  C_9
REMARK    7  A    between atoms: C_9  and  S_10
REMARK    8  A    between atoms: S_10  and  N_13
REMARK                            x       y       z     vdW  Elec       q    Type
REMARK                         _______ _______ _______ _____ _____    ______ ____
ROOT
ATOM      1  C   UNL     1       0.044   4.101   1.970  0.00  0.00    +0.000 C 
ENDROOT
BRANCH   1   2
ATOM      2  S   UNL     1       0.117   2.344   2.417  0.00  0.00    +0.000 S 
ATOM      3  O   UNL     1      -0.646   2.106   3.592  0.00  0.00    +0.000 OA
ATOM      4  O   UNL     1       1.451   1.867   2.311  0.00  0.00    +0.000 OA
BRANCH   2   5
ATOM      5  N   UNL     1      -0.709   1.564   1.212  0.00  0.00    +0.000 NA
ATOM      6  C   UNL     1      -0.013   1.086   0.008  0.00  0.00    +0.000 C 
ATOM      7  C   UNL     1      -0.762   1.597  -1.227  0.00  0.00    +0.000 C 
ATOM      8  C   UNL     1      -2.826   1.832   0.024  0.00  0.00    +0.000 C 
ATOM      9  C   UNL     1      -2.162   1.331   1.310  0.00  0.00    +0.000 C 
ATOM     10  N   UNL     1      -2.181   1.200  -1.143  0.00  0.00    +0.000 NA
ATOM     11  H   UNL     1      -2.668   1.493  -2.002  0.00  0.00    +0.000 HD
ENDBRANCH   2   5
ENDBRANCH   1   2
BRANCH   1  12
ATOM     12  C   UNL     1       0.783   4.926   3.026  0.00  0.00    +0.000 C 
BRANCH  12  14
ATOM     13  N   UNL     1       1.310   7.307   3.444  0.00  0.00    +0.000 N 
ATOM     14  C   UNL     1       0.723   6.386   2.654  0.00  0.00    +0.000 C 
ATOM     15  O   UNL     1       0.146   6.731   1.645  0.00  0.00    +0.000 OA
ATOM     16  H   UNL     1       1.800   7.013   4.301  0.00  0.00    +0.000 HD
BRANCH  13  17
ATOM     17  C   UNL     1       1.251   8.725   3.083  0.00  0.00    +0.000 C 
BRANCH  17  18
ATOM     18  C   UNL     1       1.990   9.551   4.138  0.00  0.00    +0.000 C 
BRANCH  18  20
ATOM     19  C   UNL     1       4.163   9.932   5.074  0.00  0.00    +0.000 C 
ATOM     20  O   UNL     1       3.379   9.213   4.120  0.00  0.00    +0.000 OA
ENDBRANCH  18  20
ENDBRANCH  17  18
ENDBRANCH  13  17
ENDBRANCH  12  14
ENDBRANCH   1  12
TORSDOF 7
ENDMDL
MODEL      920
REMARK  Name = ZINC20183142
REMARK  11 active torsions:
REMARK  status: ('A' for Active; 'I' for Inactive)
REMARK    1  A    between atoms: C_1  and  C_2
REMARK    2  A    between atoms: C_2  and  N_3
REMARK    3  A    between atoms: N_3  and  C_4
REMARK    4  A    between atoms: N_3  and  S_7
REMARK    5  A    between atoms: C_4  and  C_5
REMARK    6  A    between atoms: C_5  and  N_6
REMARK    7  A    between atoms: S_7  and  C_10
REMARK    8  A    between atoms: C_13  and  O_18
REMARK    9  A    between atoms: C_15  and  O_16
REMARK   10  A    between atoms: O_16  and  C_17
REMARK   11  A    between atoms: O_18  and  C_19
REMARK                            x       y       z     vdW  Elec       q    Type
REMARK                         _______ _______ _______ _____ _____    ______ ____
ROOT
ATOM      1  S   UNL     1      -6.287  -0.123   1.886  0.00  0.00    +0.000 S 
ATOM      2  O   UNL     1      -7.025   1.050   2.201  0.00  0.00    +0.000 OA
ATOM      3  O   UNL     1      -6.607  -0.947   0.774  0.00  0.00    +0.000 OA
ENDROOT
BRANCH   1   4
ATOM      4  C   UNL     1      -4.611   0.377   1.677  0.00  0.00    +0.000 A 
ATOM      5  C   UNL     1      -3.902  -0.032   0.564  0.00  0.00    +0.000 A 
ATOM      6  C   UNL     1      -2.589   0.364   0.394  0.00  0.00    +0.000 A 
ATOM      7  C   UNL     1      -1.975   1.163   1.348  0.00  0.00    +0.000 A 
ATOM      8  C   UNL     1      -2.683   1.574   2.466  0.00  0.00    +0.000 A 
ATOM      9  C   UNL     1      -4.003   1.181   2.631  0.00  0.00    +0.000 A 
BRANCH   9  10
ATOM     10  O   UNL     1      -4.700   1.582   3.727  0.00  0.00    +0.000 OA
ATOM     11  C   UNL     1      -4.011   2.408   4.668  0.00  0.00    +0.000 C 
ENDBRANCH   9  10
BRANCH   7  12
ATOM     12  O   UNL     1      -0.682   1.547   1.184  0.00  0.00    +0.000 OA
ATOM     13  C   UNL     1      -0.013   1.086   0.008  0.00  0.00    +0.000 C 
ENDBRANCH   7  12
ENDBRANCH   1   4
BRANCH   1  14
ATOM     14  N   UNL     1      -6.345  -1.093   3.227  0.00  0.00    +0.000 NA
BRANCH  14  16
ATOM     15  C   UNL     1      -8.076  -0.580   4.877  0.00  0.00    +0.000 C 
ATOM     16  C   UNL     1      -6.584  -0.504   4.547  0.00  0.00    +0.000 C 
ENDBRANCH  14  16
BRANCH  14  17
ATOM     17  C   UNL     1      -6.158  -2.539   3.093  0.00  0.00    +0.000 C 
BRANCH  17  18
ATOM     18  C   UNL     1      -4.692  -2.890   3.353  0.00  0.00    +0.000 C 
BRANCH  18  19
ATOM     19  N   UNL     1      -4.504  -4.341   3.218  0.00  0.00    +0.000 N 
ATOM     20  H   UNL     1      -4.763  -4.635   2.266  0.00  0.00    +0.000 HD
ATOM     21  H   UNL     1      -5.099  -4.830   3.902  0.00  0.00    +0.000 HD
ATOM     22  H   UNL     1      -3.517  -4.578   3.393  0.00  0.00    +0.000 HD
ENDBRANCH  18  19
ENDBRANCH  17  18
ENDBRANCH  14  17
ENDBRANCH   1  14
TORSDOF 8
ENDMDL
MODEL      921
REMARK  Name = ZINC05184903
REMARK  9 active torsions:
REMARK  status: ('A' for Active; 'I' for Inactive)
REMARK    1  A    between atoms: C_1  and  O_2
REMARK    2  A    between atoms: O_2  and  C_3
REMARK    3  A    between atoms: C_6  and  C_11
REMARK    4  A    between atoms: C_8  and  O_9
REMARK    5  A    between atoms: O_9  and  C_10
REMARK    6  A    between atoms: C_11  and  N_21
REMARK    7  A    between atoms: C_12  and  C_13
REMARK    8  A    between atoms: C_12  and  N_21
REMARK    9  A    between atoms: C_16  and  C_19
REMARK                            x       y       z     vdW  Elec       q    Type
REMARK                         _______ _______ _______ _____ _____    ______ ____
ROOT
ATOM      1  N   UNL     1      -5.452   4.248   1.444  0.00  0.00    +0.000 N 
ATOM      2  H   UNL     1      -4.733   4.806   1.926  0.00  0.00    +0.000 HD
ATOM      3  H   UNL     1      -5.551   3.341   1.922  0.00  0.00    +0.000 HD
ENDROOT
BRANCH   1   4
ATOM      4  C   UNL     1      -6.738   4.968   1.484  0.00  0.00    +0.000 C 
BRANCH   4   8
ATOM      5  C   UNL     1      -7.873   5.583   5.561  0.00  0.00    +0.000 A 
ATOM      6  C   UNL     1      -8.274   4.437   4.893  0.00  0.00    +0.000 A 
ATOM      7  C   UNL     1      -7.910   4.244   3.573  0.00  0.00    +0.000 A 
ATOM      8  C   UNL     1      -7.137   5.186   2.921  0.00  0.00    +0.000 A 
ATOM      9  C   UNL     1      -6.735   6.332   3.581  0.00  0.00    +0.000 A 
ATOM     10  C   UNL     1      -7.101   6.535   4.902  0.00  0.00    +0.000 A 
BRANCH   5  12
ATOM     11  C   UNL     1      -9.028   4.759   7.469  0.00  0.00    +0.000 C 
ATOM     12  O   UNL     1      -8.235   5.778   6.857  0.00  0.00    +0.000 OA
ENDBRANCH   5  12
BRANCH  10  13
ATOM     13  O   UNL     1      -6.706   7.661   5.553  0.00  0.00    +0.000 OA
ATOM     14  C   UNL     1      -5.914   8.594   4.815  0.00  0.00    +0.000 C 
ENDBRANCH  10  13
ENDBRANCH   4   8
ENDBRANCH   1   4
BRANCH   1  15
ATOM     15  C   UNL     1      -5.036   4.019   0.047  0.00  0.00    +0.000 C 
BRANCH  15  16
ATOM     16  C   UNL     1      -3.720   3.284   0.037  0.00  0.00    +0.000 A 
ATOM     17  C   UNL     1      -3.705   1.900   0.030  0.00  0.00    +0.000 A 
ATOM     18  C   UNL     1      -2.505   1.220   0.021  0.00  0.00    +0.000 A 
ATOM     19  C   UNL     1      -1.304   1.932   0.019  0.00  0.00    +0.000 A 
ATOM     20  C   UNL     1      -1.326   3.328   0.032  0.00  0.00    +0.000 A 
ATOM     21  C   UNL     1      -2.534   3.995   0.036  0.00  0.00    +0.000 A 
BRANCH  19  22
ATOM     22  C   UNL     1      -0.014   1.210   0.009  0.00  0.00    +0.000 C 
ATOM     23  O   UNL     1       0.002  -0.004   0.002  0.00  0.00    +0.000 OA
ATOM     24  O   UNL     1       1.143   1.900   0.001  0.00  0.00    +0.000 OA
ENDBRANCH  19  22
ENDBRANCH  15  16
ENDBRANCH   1  15
TORSDOF 7
ENDMDL
MODEL      922
REMARK  Name = ZINC20399523
REMARK  7 active torsions:
REMARK  status: ('A' for Active; 'I' for Inactive)
REMARK    1  A    between atoms: C_6  and  O_7
REMARK    2  A    between atoms: O_7  and  C_8
REMARK    3  A    between atoms: C_8  and  C_9
REMARK    4  A    between atoms: C_9  and  S_10
REMARK    5  A    between atoms: S_10  and  C_13
REMARK    6  A    between atoms: C_13  and  C_14
REMARK    7  A    between atoms: C_14  and  N_15
REMARK                            x       y       z     vdW  Elec       q    Type
REMARK                         _______ _______ _______ _____ _____    ______ ____
ROOT
ATOM      1  C   UNL     1       5.347  -1.911   2.760  0.00  0.00    +0.000 C 
ENDROOT
BRANCH   1   2
ATOM      2  C   UNL     1       6.772  -1.827   3.311  0.00  0.00    +0.000 C 
BRANCH   2   3
ATOM      3  S   UNL     1       7.248  -3.434   4.004  0.00  0.00    +0.000 S 
ATOM      4  O   UNL     1       6.420  -3.702   5.128  0.00  0.00    +0.000 OA
ATOM      5  O   UNL     1       7.304  -4.382   2.946  0.00  0.00    +0.000 OA
BRANCH   3   6
ATOM      6  C   UNL     1       8.936  -3.133   4.594  0.00  0.00    +0.000 C 
BRANCH   6   7
ATOM      7  C   UNL     1       9.495  -4.413   5.219  0.00  0.00    +0.000 C 
BRANCH   7   8
ATOM      8  N   UNL     1      10.862  -4.168   5.696  0.00  0.00    +0.000 N 
ATOM      9  H   UNL     1      10.851  -3.419   6.403  0.00  0.00    +0.000 HD
ATOM     10  H   UNL     1      11.458  -3.885   4.905  0.00  0.00    +0.000 HD
ATOM     11  H   UNL     1      11.239  -5.030   6.117  0.00  0.00    +0.000 HD
ENDBRANCH   7   8
ENDBRANCH   6   7
ENDBRANCH   3   6
ENDBRANCH   2   3
ENDBRANCH   1   2
BRANCH   1  12
ATOM     12  O   UNL     1       4.973  -0.645   2.213  0.00  0.00    +0.000 OA
BRANCH  12  18
ATOM     13  C   UNL     1       2.884  -1.649   1.680  0.00  0.00    +0.000 A 
ATOM     14  C   UNL     1       1.616  -1.552   1.137  0.00  0.00    +0.000 A 
ATOM     15  C   UNL     1       1.184  -0.356   0.590  0.00  0.00    +0.000 A 
ATOM     16  C   UNL     1       2.029   0.752   0.587  0.00  0.00    +0.000 A 
ATOM     17  C   UNL     1       3.298   0.653   1.132  0.00  0.00    +0.000 A 
ATOM     18  C   UNL     1       3.726  -0.548   1.678  0.00  0.00    +0.000 A 
ATOM     19  O   UNL     1       1.376   1.797  -0.001  0.00  0.00    +0.000 OA
ATOM     20  C   UNL     1      -0.017   1.436   0.010  0.00  0.00    +0.000 C 
ATOM     21  O   UNL     1       0.002  -0.004   0.002  0.00  0.00    +0.000 OA
ENDBRANCH  12  18
ENDBRANCH   1  12
TORSDOF 7
ENDMDL
MODEL      923
REMARK  Name = ZINC20236119
REMARK  11 active torsions:
REMARK  status: ('A' for Active; 'I' for Inactive)
REMARK    1  A    between atoms: C_1  and  C_2
REMARK    2  A    between atoms: C_2  and  S_3
REMARK    3  A    between atoms: S_3  and  N_6
REMARK    4  A    between atoms: N_6  and  C_7
REMARK    5  A    between atoms: N_6  and  C_10
REMARK    6  A    between atoms: C_7  and  C_8
REMARK    7  A    between atoms: C_8  and  N_9
REMARK    8  A    between atoms: C_13  and  O_18
REMARK    9  A    between atoms: C_14  and  O_16
REMARK   10  A    between atoms: O_16  and  C_17
REMARK   11  A    between atoms: O_18  and  C_19
REMARK                            x       y       z     vdW  Elec       q    Type
REMARK                         _______ _______ _______ _____ _____    ______ ____
ROOT
ATOM      1  N   UNL     1      -0.751   1.822   1.438  0.00  0.00    +0.000 N 
ENDROOT
BRANCH   1   2
ATOM      2  C   UNL     1      -0.398   3.005   2.095  0.00  0.00    +0.000 A 
ATOM      3  C   UNL     1       0.940   3.297   2.330  0.00  0.00    +0.000 A 
ATOM      4  C   UNL     1       1.290   4.468   2.974  0.00  0.00    +0.000 A 
ATOM      5  C   UNL     1       0.308   5.349   3.397  0.00  0.00    +0.000 A 
ATOM      6  C   UNL     1      -1.033   5.057   3.168  0.00  0.00    +0.000 A 
ATOM      7  C   UNL     1      -1.385   3.886   2.517  0.00  0.00    +0.000 A 
BRANCH   5   8
ATOM      8  O   UNL     1       0.654   6.499   4.036  0.00  0.00    +0.000 OA
ATOM      9  C   UNL     1       2.050   6.734   4.238  0.00  0.00    +0.000 C 
ENDBRANCH   5   8
BRANCH   6  10
ATOM     10  O   UNL     1      -1.998   5.922   3.582  0.00  0.00    +0.000 OA
ATOM     11  C   UNL     1      -3.353   5.558   3.312  0.00  0.00    +0.000 C 
ENDBRANCH   6  10
ENDBRANCH   1   2
BRANCH   1  12
ATOM     12  S   UNL     1      -0.227   1.545  -0.108  0.00  0.00    +0.000 S 
ATOM     13  O   UNL     1      -0.075   0.134  -0.193  0.00  0.00    +0.000 OA
ATOM     14  O   UNL     1       0.893   2.404  -0.271  0.00  0.00    +0.000 OA
BRANCH  12  16
ATOM     15  C   UNL     1      -1.216   1.880  -2.636  0.00  0.00    +0.000 C 
ATOM     16  C   UNL     1      -1.593   2.091  -1.168  0.00  0.00    +0.000 C 
ENDBRANCH  12  16
ENDBRANCH   1  12
BRANCH   1  17
ATOM     17  C   UNL     1      -1.584   0.827   2.118  0.00  0.00    +0.000 C 
BRANCH  17  18
ATOM     18  C   UNL     1      -0.698  -0.083   2.971  0.00  0.00    +0.000 C 
BRANCH  18  19
ATOM     19  N   UNL     1      -1.534  -1.081   3.653  0.00  0.00    +0.000 N 
ATOM     20  H   UNL     1      -2.034  -1.647   2.953  0.00  0.00    +0.000 HD
ATOM     21  H   UNL     1      -2.217  -0.602   4.258  0.00  0.00    +0.000 HD
ATOM     22  H   UNL     1      -0.938  -1.694   4.228  0.00  0.00    +0.000 HD
ENDBRANCH  18  19
ENDBRANCH  17  18
ENDBRANCH   1  17
TORSDOF 8
ENDMDL
MODEL      924
REMARK  Name = ZINC21302463
REMARK  11 active torsions:
REMARK  status: ('A' for Active; 'I' for Inactive)
REMARK    1  A    between atoms: C_1  and  C_2
REMARK    2  A    between atoms: C_2  and  C_3
REMARK    3  A    between atoms: C_2  and  C_4
REMARK    4  A    between atoms: C_2  and  O_5
REMARK    5  A    between atoms: O_5  and  C_6
REMARK    6  A    between atoms: C_6  and  C_8
REMARK    7  A    between atoms: C_8  and  C_9
REMARK    8  A    between atoms: C_8  and  C_14
REMARK    9  A    between atoms: C_14  and  C_15
REMARK   10  A    between atoms: C_14  and  N_19
REMARK   11  A    between atoms: C_15  and  C_16
REMARK                            x       y       z     vdW  Elec       q    Type
REMARK                         _______ _______ _______ _____ _____    ______ ____
ROOT
ATOM      1  C   UNL     1       2.756   5.072  -0.123  0.00  0.00    +0.000 C 
ENDROOT
BRANCH   1   2
ATOM      2  C   UNL     1       2.086   5.504  -1.402  0.00  0.00    +0.000 A 
ATOM      3  C   UNL     1       0.991   6.347  -1.370  0.00  0.00    +0.000 A 
ATOM      4  C   UNL     1       0.412   6.716  -2.539  0.00  0.00    +0.000 A 
ATOM      5  S   UNL     1       1.421   5.861  -3.738  0.00  0.00    +0.000 S 
ATOM      6  C   UNL     1       2.551   5.075  -2.601  0.00  0.00    +0.000 A 
ENDBRANCH   1   2
BRANCH   1   7
ATOM      7  C   UNL     1       4.195   5.519  -0.134  0.00  0.00    +0.000 C 
ATOM      8  O   UNL     1       5.082   4.702  -0.056  0.00  0.00    +0.000 OA
BRANCH   7   9
ATOM      9  O   UNL     1       4.492   6.825  -0.231  0.00  0.00    +0.000 OA
BRANCH   9  11
ATOM     10  C   UNL     1       6.591   6.514  -1.426  0.00  0.00    +0.000 C 
ATOM     11  C   UNL     1       5.899   7.182  -0.236  0.00  0.00    +0.000 C 
ATOM     12  C   UNL     1       6.039   8.701  -0.352  0.00  0.00    +0.000 C 
ATOM     13  C   UNL     1       6.550   6.708   1.065  0.00  0.00    +0.000 C 
ENDBRANCH   9  11
ENDBRANCH   7   9
ENDBRANCH   1   7
BRANCH   1  14
ATOM     14  C   UNL     1       2.696   3.548  -0.005  0.00  0.00    +0.000 C 
BRANCH  14  15
ATOM     15  N   UNL     1       3.349   3.127   1.242  0.00  0.00    +0.000 N 
ATOM     16  H   UNL     1       2.864   3.553   2.045  0.00  0.00    +0.000 HD
ATOM     17  H   UNL     1       4.333   3.432   1.235  0.00  0.00    +0.000 HD
ATOM     18  H   UNL     1       3.309   2.101   1.322  0.00  0.00    +0.000 HD
ENDBRANCH  14  15
BRANCH  14  19
ATOM     19  C   UNL     1       1.235   3.094   0.007  0.00  0.00    +0.000 C 
BRANCH  19  20
ATOM     20  C   UNL     1       1.177   1.588  -0.001  0.00  0.00    +0.000 C 
ATOM     21  O   UNL     1       2.199   0.944  -0.014  0.00  0.00    +0.000 OA
ATOM     22  O   UNL     1      -0.011   0.963   0.007  0.00  0.00    +0.000 OA
ENDBRANCH  19  20
ENDBRANCH  14  19
ENDBRANCH   1  14
TORSDOF 8
ENDMDL
MODEL      925
REMARK  Name = ZINC02309206
REMARK  9 active torsions:
REMARK  status: ('A' for Active; 'I' for Inactive)
REMARK    1  A    between atoms: C_1  and  C_2
REMARK    2  A    between atoms: C_2  and  N_3
REMARK    3  A    between atoms: N_3  and  C_4
REMARK    4  A    between atoms: N_3  and  C_6
REMARK    5  A    between atoms: C_4  and  C_5
REMARK    6  A    between atoms: C_6  and  C_7
REMARK    7  A    between atoms: C_7  and  N_8
REMARK    8  A    between atoms: N_8  and  C_9
REMARK    9  A    between atoms: N_16  and  C_19
REMARK                            x       y       z     vdW  Elec       q    Type
REMARK                         _______ _______ _______ _____ _____    ______ ____
ROOT
ATOM      1  C   UNL     1      -0.049   2.524   4.696  0.00  0.00    +0.000 C 
ATOM      2  C   UNL     1      -0.722   2.283   3.513  0.00  0.00    +0.000 C 
ATOM      3  C   UNL     1      -2.182   2.455   3.409  0.00  0.00    +0.000 C 
ATOM      4  O   UNL     1      -2.838   2.817   4.368  0.00  0.00    +0.000 OA
ATOM      5  N   UNL     1      -2.771   2.200   2.223  0.00  0.00    +0.000 N 
ATOM      6  C   UNL     1      -2.060   1.806   1.158  0.00  0.00    +0.000 C 
ATOM      7  O   UNL     1      -2.651   1.598   0.116  0.00  0.00    +0.000 OA
ATOM      8  N   UNL     1      -0.732   1.623   1.182  0.00  0.00    +0.000 N 
ATOM      9  C   UNL     1      -0.011   1.841   2.300  0.00  0.00    +0.000 C 
ATOM     10  O   UNL     1       1.195   1.677   2.308  0.00  0.00    +0.000 OA
ATOM     11  C   UNL     1      -0.048   1.183  -0.037  0.00  0.00    +0.000 C 
ATOM     12  H   UNL     1      -3.792   2.311   2.134  0.00  0.00    +0.000 HD
ENDROOT
BRANCH   1  13
ATOM     13  N   UNL     1      -0.706   3.048   5.750  0.00  0.00    +0.000 N 
ATOM     14  H   UNL     1      -1.724   3.196   5.701  0.00  0.00    +0.000 HD
BRANCH  13  15
ATOM     15  C   UNL     1       0.028   3.409   6.966  0.00  0.00    +0.000 C 
BRANCH  15  16
ATOM     16  C   UNL     1      -0.946   3.977   8.000  0.00  0.00    +0.000 C 
BRANCH  16  17
ATOM     17  N   UNL     1      -0.209   4.338   9.219  0.00  0.00    +0.000 N 
ATOM     18  H   UNL     1       0.347   3.520   9.507  0.00  0.00    +0.000 HD
BRANCH  17  19
ATOM     19  C   UNL     1      -1.132   4.663  10.315  0.00  0.00    +0.000 C 
ATOM     20  C   UNL     1      -0.369   4.665  11.641  0.00  0.00    +0.000 C 
ENDBRANCH  17  19
BRANCH  17  22
ATOM     21  C   UNL     1      -0.078   6.704   8.600  0.00  0.00    +0.000 C 
ATOM     22  C   UNL     1       0.718   5.449   8.965  0.00  0.00    +0.000 C 
ENDBRANCH  17  22
ENDBRANCH  16  17
ENDBRANCH  15  16
ENDBRANCH  13  15
ENDBRANCH   1  13
TORSDOF 6
ENDMDL
MODEL      926
REMARK  Name = ZINC13282339
REMARK  7 active torsions:
REMARK  status: ('A' for Active; 'I' for Inactive)
REMARK    1  A    between atoms: N_3  and  C_9
REMARK    2  A    between atoms: C_9  and  C_10
REMARK    3  A    between atoms: C_10  and  C_11
REMARK    4  A    between atoms: C_10  and  O_15
REMARK    5  A    between atoms: C_11  and  N_16
REMARK    6  A    between atoms: C_12  and  C_13
REMARK    7  A    between atoms: C_12  and  N_16
REMARK                            x       y       z     vdW  Elec       q    Type
REMARK                         _______ _______ _______ _____ _____    ______ ____
ROOT
ATOM      1  C   UNL     1      -0.013   1.086   0.008  0.00  0.00    +0.000 C 
ENDROOT
BRANCH   1   2
ATOM      2  O   UNL     1      -0.704   1.559  -1.150  0.00  0.00    +0.000 OA
ATOM      3  H   UNL     1      -0.718   2.549  -1.145  0.00  0.00    +0.000 HD
ENDBRANCH   1   2
BRANCH   1   4
ATOM      4  C   UNL     1       1.423   1.615  -0.003  0.00  0.00    +0.000 C 
BRANCH   4   5
ATOM      5  N   UNL     1       2.106   1.135  -1.219  0.00  0.00    +0.000 N 
ATOM      6  H   UNL     1       2.112   0.105  -1.223  0.00  0.00    +0.000 HD
ATOM      7  H   UNL     1       1.601   1.473  -2.051  0.00  0.00    +0.000 HD
BRANCH   5   8
ATOM      8  C   UNL     1       3.494   1.632  -1.256  0.00  0.00    +0.000 C 
BRANCH   8   9
ATOM      9  C   UNL     1       4.176   1.119  -2.526  0.00  0.00    +0.000 C 
ATOM     10 BR   UNL     1       6.029   1.775  -2.586  0.00  0.00    +0.000 Br
ENDBRANCH   8   9
ENDBRANCH   5   8
ENDBRANCH   4   5
ENDBRANCH   1   4
BRANCH   1  11
ATOM     11  C   UNL     1      -0.729   1.579   1.267  0.00  0.00    +0.000 C 
BRANCH  11  14
ATOM     12  C   UNL     1      -4.210   0.647   1.153  0.00  0.00    +0.000 A 
ATOM     13  C   UNL     1      -3.231   1.534   0.893  0.00  0.00    +0.000 A 
ATOM     14  N   UNL     1      -2.062   0.977   1.338  0.00  0.00    +0.000 N 
ATOM     15  C   UNL     1      -2.368  -0.235   1.849  0.00  0.00    +0.000 A 
ATOM     16  N   UNL     1      -3.654  -0.424   1.740  0.00  0.00    +0.000 NA
ATOM     17  N   UNL     1      -1.403  -1.191   2.439  0.00  0.00    +0.000 N 
ATOM     18  O   UNL     1      -0.219  -0.907   2.491  0.00  0.00    +0.000 OA
ATOM     19  O   UNL     1      -1.792  -2.261   2.872  0.00  0.00    +0.000 OA
ENDBRANCH  11  14
ENDBRANCH   1  11
TORSDOF 7
ENDMDL
MODEL      927
REMARK  Name = ZINC09910630
REMARK  9 active torsions:
REMARK  status: ('A' for Active; 'I' for Inactive)
REMARK    1  A    between atoms: C_1  and  C_2
REMARK    2  A    between atoms: C_2  and  N_20
REMARK    3  A    between atoms: C_3  and  C_4
REMARK    4  A    between atoms: C_3  and  N_20
REMARK    5  A    between atoms: C_5  and  C_6
REMARK    6  A    between atoms: C_5  and  N_20
REMARK    7  A    between atoms: C_6  and  N_7
REMARK    8  A    between atoms: C_8  and  C_10
REMARK    9  A    between atoms: C_17  and  C_19
REMARK                            x       y       z     vdW  Elec       q    Type
REMARK                         _______ _______ _______ _____ _____    ______ ____
ROOT
ATOM      1  N   UNL     1       2.571   1.584  -1.129  0.00  0.00    +0.000 N 
ATOM      2  C   UNL     1       1.468   2.324  -1.358  0.00  0.00    +0.000 C 
ATOM      3  O   UNL     1       1.513   3.531  -1.243  0.00  0.00    +0.000 OA
ATOM      4  H   UNL     1       2.533   0.559  -1.227  0.00  0.00    +0.000 HD
ENDROOT
BRANCH   2   5
ATOM      5  C   UNL     1       0.191   1.658  -1.754  0.00  0.00    +0.000 C 
ATOM      6  O   UNL     1       0.146   0.451  -1.869  0.00  0.00    +0.000 OA
ATOM      7  N   UNL     1      -0.910   2.398  -1.988  0.00  0.00    +0.000 N 
ATOM      8  C   UNL     1      -2.096   1.780  -2.361  0.00  0.00    +0.000 A 
ATOM      9  N   UNL     1      -2.126   0.462  -2.487  0.00  0.00    +0.000 NA
ATOM     10  C   UNL     1      -3.240  -0.159  -2.836  0.00  0.00    +0.000 A 
ATOM     11  C   UNL     1      -4.382   0.588  -3.081  0.00  0.00    +0.000 A 
ATOM     12  C   UNL     1      -4.314   1.966  -2.945  0.00  0.00    +0.000 A 
ATOM     13  N   UNL     1      -3.169   2.523  -2.587  0.00  0.00    +0.000 NA
ATOM     14  C   UNL     1      -5.530   2.819  -3.201  0.00  0.00    +0.000 C 
ATOM     15  H   UNL     1      -0.873   3.423  -1.890  0.00  0.00    +0.000 HD
ENDBRANCH   2   5
BRANCH   1  16
ATOM     16  C   UNL     1       3.824   2.237  -0.741  0.00  0.00    +0.000 C 
BRANCH  16  17
ATOM     17  C   UNL     1       4.911   1.178  -0.544  0.00  0.00    +0.000 C 
BRANCH  17  18
ATOM     18  N   UNL     1       6.173   1.854  -0.174  0.00  0.00    +0.000 N 
ATOM     19  H   UNL     1       6.368   2.597  -0.860  0.00  0.00    +0.000 HD
BRANCH  18  20
ATOM     20  C   UNL     1       7.287   0.883  -0.186  0.00  0.00    +0.000 C 
ATOM     21  C   UNL     1       8.609   1.653  -0.165  0.00  0.00    +0.000 C 
ENDBRANCH  18  20
BRANCH  18  23
ATOM     22  C   UNL     1       5.730   1.389   2.214  0.00  0.00    +0.000 C 
ATOM     23  C   UNL     1       6.046   2.460   1.168  0.00  0.00    +0.000 C 
ENDBRANCH  18  23
ENDBRANCH  17  18
ENDBRANCH  16  17
ENDBRANCH   1  16
TORSDOF 6
ENDMDL
MODEL      928
REMARK  Name = ZINC19864788
REMARK  10 active torsions:
REMARK  status: ('A' for Active; 'I' for Inactive)
REMARK    1  A    between atoms: C_1  and  N_2
REMARK    2  A    between atoms: N_2  and  C_3
REMARK    3  A    between atoms: C_3  and  C_4
REMARK    4  A    between atoms: C_4  and  C_5
REMARK    5  A    between atoms: C_4  and  O_18
REMARK    6  A    between atoms: C_5  and  O_6
REMARK    7  A    between atoms: O_6  and  C_7
REMARK    8  A    between atoms: C_10  and  O_16
REMARK    9  A    between atoms: C_12  and  N_13
REMARK   10  A    between atoms: O_16  and  C_17
REMARK                            x       y       z     vdW  Elec       q    Type
REMARK                         _______ _______ _______ _____ _____    ______ ____
ROOT
ATOM      1  C   UNL     1       1.227  -2.526  -2.390  0.00  0.00    +0.000 A 
ATOM      2  C   UNL     1       1.871  -1.760  -3.350  0.00  0.00    +0.000 A 
ATOM      3  C   UNL     1       2.472  -2.372  -4.433  0.00  0.00    +0.000 A 
ATOM      4  C   UNL     1       2.431  -3.753  -4.560  0.00  0.00    +0.000 A 
ATOM      5  C   UNL     1       1.786  -4.518  -3.600  0.00  0.00    +0.000 A 
ATOM      6  C   UNL     1       1.190  -3.906  -2.514  0.00  0.00    +0.000 A 
ENDROOT
BRANCH   6   7
ATOM      7  N   UNL     1       0.507  -4.723  -1.486  0.00  0.00    +0.000 N 
ATOM      8  O   UNL     1       0.475  -5.936  -1.595  0.00  0.00    +0.000 OA
ATOM      9  O   UNL     1      -0.022  -4.184  -0.531  0.00  0.00    +0.000 OA
ENDBRANCH   6   7
BRANCH   4  10
ATOM     10  O   UNL     1       3.023  -4.356  -5.625  0.00  0.00    +0.000 OA
ATOM     11  C   UNL     1       3.670  -3.506  -6.575  0.00  0.00    +0.000 C 
ENDBRANCH   4  10
BRANCH   1  12
ATOM     12  O   UNL     1       0.636  -1.923  -1.324  0.00  0.00    +0.000 OA
BRANCH  12  13
ATOM     13  C   UNL     1       0.718  -0.497  -1.257  0.00  0.00    +0.000 C 
BRANCH  13  14
ATOM     14  C   UNL     1       0.002  -0.004   0.002  0.00  0.00    +0.000 C 
BRANCH  14  15
ATOM     15  O   UNL     1       0.693  -0.477   1.160  0.00  0.00    +0.000 OA
ATOM     16  H   UNL     1       0.230  -0.159   1.975  0.00  0.00    +0.000 HD
ENDBRANCH  14  15
BRANCH  14  17
ATOM     17  C   UNL     1      -0.019   1.526   0.010  0.00  0.00    +0.000 C 
BRANCH  17  19
ATOM     18  C   UNL     1      -0.745   3.467   1.261  0.00  0.00    +0.000 C 
ATOM     19  N   UNL     1      -0.706   2.000   1.219  0.00  0.00    +0.000 N 
ATOM     20  H   UNL     1      -0.210   1.649   2.051  0.00  0.00    +0.000 HD
ATOM     21  H   UNL     1      -1.669   1.633   1.227  0.00  0.00    +0.000 HD
ENDBRANCH  17  19
ENDBRANCH  14  17
ENDBRANCH  13  14
ENDBRANCH  12  13
ENDBRANCH   1  12
TORSDOF 8
ENDMDL
MODEL      929
REMARK  Name = ZINC04727049
REMARK  8 active torsions:
REMARK  status: ('A' for Active; 'I' for Inactive)
REMARK    1  A    between atoms: C_1  and  C_2
REMARK    2  A    between atoms: C_2  and  O_3
REMARK    3  A    between atoms: O_3  and  C_4
REMARK    4  A    between atoms: C_4  and  C_6
REMARK    5  A    between atoms: C_6  and  N_7
REMARK    6  A    between atoms: C_8  and  C_10
REMARK    7  A    between atoms: C_10  and  N_11
REMARK    8  A    between atoms: C_12  and  C_14
REMARK                            x       y       z     vdW  Elec       q    Type
REMARK                         _______ _______ _______ _____ _____    ______ ____
ROOT
ATOM      1  N   UNL     1      -2.430   0.973   0.019  0.00  0.00    +0.000 N 
ATOM      2  C   UNL     1      -3.707   1.405   0.027  0.00  0.00    +0.000 C 
ATOM      3  O   UNL     1      -3.944   2.594   0.035  0.00  0.00    +0.000 OA
ATOM      4  H   UNL     1      -2.228  -0.037   0.013  0.00  0.00    +0.000 HD
ENDROOT
BRANCH   1   5
ATOM      5  C   UNL     1      -1.329   1.940   0.019  0.00  0.00    +0.000 C 
BRANCH   5   6
ATOM      6  C   UNL     1      -0.014   1.204   0.009  0.00  0.00    +0.000 C 
ATOM      7  O   UNL     1       0.002  -0.004   0.002  0.00  0.00    +0.000 OA
BRANCH   6   8
ATOM      8  O   UNL     1       1.139   1.891   0.001  0.00  0.00    +0.000 OA
BRANCH   8  10
ATOM      9  C   UNL     1       3.568   2.065  -0.021  0.00  0.00    +0.000 C 
ATOM     10  C   UNL     1       2.367   1.117  -0.015  0.00  0.00    +0.000 C 
ENDBRANCH   8  10
ENDBRANCH   6   8
ENDBRANCH   5   6
ENDBRANCH   1   5
BRANCH   2  11
ATOM     11  C   UNL     1      -4.839   0.410   0.027  0.00  0.00    +0.000 C 
BRANCH  11  12
ATOM     12  N   UNL     1      -6.117   1.125   0.037  0.00  0.00    +0.000 N 
ATOM     13  C   UNL     1      -7.275   0.435   0.039  0.00  0.00    +0.000 C 
ATOM     14  O   UNL     1      -7.259  -0.783   0.032  0.00  0.00    +0.000 OA
ATOM     15  H   UNL     1      -6.131   2.155   0.043  0.00  0.00    +0.000 HD
BRANCH  13  16
ATOM     16  C   UNL     1      -8.499   1.120   0.048  0.00  0.00    +0.000 C 
ATOM     17  N   UNL     1      -9.572   0.480   0.050  0.00  0.00    +0.000 NA
ATOM     18  N   UNL     1     -10.538  -0.095   0.051  0.00  0.00    +0.000 NA
ATOM     19  H   UNL     1     -10.524  -1.125   0.052  0.00  0.00    +0.000 HD
ENDBRANCH  13  16
ENDBRANCH  11  12
ENDBRANCH   2  11
TORSDOF 7
ENDMDL
MODEL      930
REMARK  Name = ZINC27269897
REMARK  12 active torsions:
REMARK  status: ('A' for Active; 'I' for Inactive)
REMARK    1  A    between atoms: C_1  and  C_2
REMARK    2  A    between atoms: C_2  and  C_3
REMARK    3  A    between atoms: C_3  and  N_4
REMARK    4  A    between atoms: N_4  and  C_5
REMARK    5  A    between atoms: N_4  and  C_8
REMARK    6  A    between atoms: C_5  and  C_6
REMARK    7  A    between atoms: C_6  and  C_7
REMARK    8  A    between atoms: C_8  and  C_9
REMARK    9  A    between atoms: C_9  and  C_11
REMARK   10  A    between atoms: C_12  and  N_21
REMARK   11  A    between atoms: N_13  and  C_20
REMARK   12  A    between atoms: N_16  and  C_19
REMARK                            x       y       z     vdW  Elec       q    Type
REMARK                         _______ _______ _______ _____ _____    ______ ____
ROOT
ATOM      1  C   UNL     1      -1.490  -0.085   1.542  0.00  0.00    +0.000 A 
ATOM      2  C   UNL     1      -1.489  -0.569   2.861  0.00  0.00    +0.000 A 
ATOM      3  N   UNL     1      -2.226  -1.681   3.157  0.00  0.00    +0.000 N 
ATOM      4  C   UNL     1      -2.935  -2.320   2.213  0.00  0.00    +0.000 A 
ATOM      5  O   UNL     1      -3.570  -3.307   2.526  0.00  0.00    +0.000 OA
ATOM      6  N   UNL     1      -2.969  -1.907   0.936  0.00  0.00    +0.000 N 
ATOM      7  C   UNL     1      -2.280  -0.816   0.542  0.00  0.00    +0.000 A 
ATOM      8  O   UNL     1      -2.313  -0.444  -0.616  0.00  0.00    +0.000 OA
ATOM      9  C   UNL     1      -3.764  -2.652  -0.044  0.00  0.00    +0.000 C 
ATOM     10  C   UNL     1      -2.237  -2.190   4.531  0.00  0.00    +0.000 C 
ENDROOT
BRANCH   2  11
ATOM     11  N   UNL     1      -0.772   0.062   3.829  0.00  0.00    +0.000 N 
ATOM     12  H   UNL     1      -0.225   0.902   3.591  0.00  0.00    +0.000 HD
ATOM     13  H   UNL     1      -0.774  -0.296   4.795  0.00  0.00    +0.000 HD
ENDBRANCH   2  11
BRANCH   1  14
ATOM     14  C   UNL     1      -0.750   1.063   1.187  0.00  0.00    +0.000 C 
ATOM     15  O   UNL     1      -0.016   1.588   2.001  0.00  0.00    +0.000 OA
BRANCH  14  16
ATOM     16  C   UNL     1      -0.869   1.637  -0.201  0.00  0.00    +0.000 C 
BRANCH  16  17
ATOM     17  N   UNL     1      -0.006   2.820  -0.317  0.00  0.00    +0.000 N 
ATOM     18  H   UNL     1      -0.226   3.451   0.466  0.00  0.00    +0.000 HD
BRANCH  17  19
ATOM     19  C   UNL     1      -0.271   3.544  -1.568  0.00  0.00    +0.000 C 
BRANCH  19  20
ATOM     20  C   UNL     1       0.394   4.921  -1.511  0.00  0.00    +0.000 C 
ATOM     21  C   UNL     1       0.048   5.708  -2.776  0.00  0.00    +0.000 C 
ENDBRANCH  19  20
ENDBRANCH  17  19
BRANCH  17  22
ATOM     22  C   UNL     1       1.412   2.450  -0.213  0.00  0.00    +0.000 C 
BRANCH  22  24
ATOM     23  C   UNL     1       3.264   1.152  -1.275  0.00  0.00    +0.000 C 
ATOM     24  C   UNL     1       1.784   1.525  -1.374  0.00  0.00    +0.000 C 
ENDBRANCH  22  24
ENDBRANCH  17  22
ENDBRANCH  16  17
ENDBRANCH  14  16
ENDBRANCH   1  14
TORSDOF 8
ENDMDL
MODEL      931
REMARK  Name = ZINC15083107
REMARK  9 active torsions:
REMARK  status: ('A' for Active; 'I' for Inactive)
REMARK    1  A    between atoms: C_1  and  S_2
REMARK    2  A    between atoms: S_2  and  C_5
REMARK    3  A    between atoms: N_9  and  C_17
REMARK    4  A    between atoms: C_10  and  C_11
REMARK    5  A    between atoms: C_17  and  C_18
REMARK    6  A    between atoms: C_18  and  N_23
REMARK    7  A    between atoms: C_19  and  C_20
REMARK    8  A    between atoms: C_19  and  N_23
REMARK    9  A    between atoms: C_20  and  O_21
REMARK                            x       y       z     vdW  Elec       q    Type
REMARK                         _______ _______ _______ _____ _____    ______ ____
ROOT
ATOM      1  C   UNL     1       1.063   2.138   0.003  0.00  0.00    +0.000 C 
ATOM      2  C   UNL     1      -0.016   1.356   0.009  0.00  0.00    +0.000 C 
ATOM      3  C   UNL     1      -1.230   2.186   0.019  0.00  0.00    +0.000 C 
ATOM      4  O   UNL     1      -2.368   1.759   0.021  0.00  0.00    +0.000 OA
ATOM      5  N   UNL     1      -0.894   3.490   0.029  0.00  0.00    +0.000 N 
ATOM      6  C   UNL     1       0.572   3.567   0.016  0.00  0.00    +0.000 C 
ATOM      7  O   UNL     1       0.002  -0.004   0.002  0.00  0.00    +0.000 OA
ENDROOT
BRANCH   6   8
ATOM      8  C   UNL     1       1.068   4.276   1.250  0.00  0.00    +0.000 A 
ATOM      9  C   UNL     1       0.439   4.071   2.464  0.00  0.00    +0.000 A 
ATOM     10  C   UNL     1       0.897   4.717   3.597  0.00  0.00    +0.000 A 
ATOM     11  C   UNL     1       1.977   5.576   3.514  0.00  0.00    +0.000 A 
ATOM     12  C   UNL     1       2.602   5.785   2.299  0.00  0.00    +0.000 A 
ATOM     13  C   UNL     1       2.148   5.135   1.167  0.00  0.00    +0.000 A 
ENDBRANCH   6   8
BRANCH   1  15
ATOM     14  C   UNL     1       3.396   2.181  -1.607  0.00  0.00    +0.000 C 
ATOM     15  S   UNL     1       2.742   1.607  -0.015  0.00  0.00    +0.000 S 
ATOM     16  O   UNL     1       3.359   2.315   1.051  0.00  0.00    +0.000 OA
ATOM     17  O   UNL     1       2.674   0.187   0.002  0.00  0.00    +0.000 OA
ENDBRANCH   1  15
BRANCH   5  18
ATOM     18  C   UNL     1      -1.822   4.624   0.044  0.00  0.00    +0.000 C 
BRANCH  18  19
ATOM     19  C   UNL     1      -2.159   5.026  -1.393  0.00  0.00    +0.000 C 
BRANCH  19  20
ATOM     20  N   UNL     1      -3.093   6.168  -1.369  0.00  0.00    +0.000 N 
ATOM     21  H   UNL     1      -3.952   5.896  -0.870  0.00  0.00    +0.000 HD
ATOM     22  H   UNL     1      -2.654   6.959  -0.877  0.00  0.00    +0.000 HD
BRANCH  20  23
ATOM     23  C   UNL     1      -3.435   6.578  -2.744  0.00  0.00    +0.000 C 
BRANCH  23  24
ATOM     24  C   UNL     1      -4.403   7.761  -2.687  0.00  0.00    +0.000 C 
BRANCH  24  25
ATOM     25  O   UNL     1      -3.745   8.888  -2.106  0.00  0.00    +0.000 OA
ATOM     26  H   UNL     1      -2.958   9.132  -2.655  0.00  0.00    +0.000 HD
ENDBRANCH  24  25
ENDBRANCH  23  24
ENDBRANCH  20  23
ENDBRANCH  19  20
ENDBRANCH  18  19
ENDBRANCH   5  18
TORSDOF 8
ENDMDL
MODEL      932
REMARK  Name = ZINC31392821
REMARK  12 active torsions:
REMARK  status: ('A' for Active; 'I' for Inactive)
REMARK    1  A    between atoms: C_1  and  N_2
REMARK    2  A    between atoms: N_2  and  C_3
REMARK    3  A    between atoms: N_2  and  C_8
REMARK    4  A    between atoms: C_3  and  C_4
REMARK    5  A    between atoms: C_4  and  C_5
REMARK    6  A    between atoms: C_5  and  N_6
REMARK    7  A    between atoms: N_6  and  N_7
REMARK    8  A    between atoms: C_8  and  C_9
REMARK    9  A    between atoms: C_10  and  O_25
REMARK   10  A    between atoms: C_11  and  O_24
REMARK   11  A    between atoms: C_12  and  N_14
REMARK   12  A    between atoms: C_22  and  N_23
REMARK                            x       y       z     vdW  Elec       q    Type
REMARK                         _______ _______ _______ _____ _____    ______ ____
ROOT
ATOM      1  C   UNL     1      -3.482  -0.898   0.081  0.00  0.00    +0.000 C 
ATOM      2  C   UNL     1      -3.021  -1.659   1.339  0.00  0.00    +0.000 C 
ATOM      3  C   UNL     1      -1.513  -1.325   1.454  0.00  0.00    +0.000 C 
ATOM      4  C   UNL     1      -1.167  -0.887   0.008  0.00  0.00    +0.000 C 
ATOM      5  O   UNL     1      -2.346  -0.172  -0.419  0.00  0.00    +0.000 OA
ENDROOT
BRANCH   4   6
ATOM      6  N   UNL     1       0.002  -0.004   0.002  0.00  0.00    +0.000 N 
ATOM      7  C   UNL     1      -0.016   1.359   0.009  0.00  0.00    +0.000 A 
ATOM      8  N   UNL     1       1.200   1.820   0.000  0.00  0.00    +0.000 NA
ATOM      9  C   UNL     1       2.075   0.785  -0.013  0.00  0.00    +0.000 A 
ATOM     10  C   UNL     1       1.316  -0.398  -0.013  0.00  0.00    +0.000 A 
ATOM     11  N   UNL     1       1.945  -1.568  -0.025  0.00  0.00    +0.000 NA
ATOM     12  C   UNL     1       3.261  -1.623  -0.038  0.00  0.00    +0.000 A 
ATOM     13  N   UNL     1       4.015  -0.539  -0.040  0.00  0.00    +0.000 NA
ATOM     14  C   UNL     1       3.475   0.675  -0.028  0.00  0.00    +0.000 A 
BRANCH  14  15
ATOM     15  N   UNL     1       4.274   1.805  -0.030  0.00  0.00    +0.000 N 
ATOM     16  H   UNL     1       3.834   2.736  -0.020  0.00  0.00    +0.000 HD
ATOM     17  H   UNL     1       5.301   1.718  -0.041  0.00  0.00    +0.000 HD
ENDBRANCH  14  15
ENDBRANCH   4   6
BRANCH   2  18
ATOM     18  O   UNL     1      -3.210  -3.065   1.171  0.00  0.00    +0.000 OA
ATOM     19  H   UNL     1      -2.685  -3.371   0.389  0.00  0.00    +0.000 HD
ENDBRANCH   2  18
BRANCH   3  20
ATOM     20  O   UNL     1      -0.762  -2.481   1.830  0.00  0.00    +0.000 OA
ATOM     21  H   UNL     1      -0.894  -3.185   1.147  0.00  0.00    +0.000 HD
ENDBRANCH   3  20
BRANCH   1  22
ATOM     22  C   UNL     1      -4.604   0.077   0.445  0.00  0.00    +0.000 C 
BRANCH  22  24
ATOM     23  C   UNL     1      -4.097   1.567  -1.396  0.00  0.00    +0.000 C 
ATOM     24  N   UNL     1      -5.118   0.710  -0.777  0.00  0.00    +0.000 N 
ATOM     25  H   UNL     1      -5.351  -0.038  -1.446  0.00  0.00    +0.000 HD
BRANCH  24  26
ATOM     26  C   UNL     1      -6.345   1.468  -0.501  0.00  0.00    +0.000 C 
BRANCH  26  27
ATOM     27  C   UNL     1      -6.985   1.901  -1.821  0.00  0.00    +0.000 C 
BRANCH  27  28
ATOM     28  C   UNL     1      -8.263   2.691  -1.534  0.00  0.00    +0.000 C 
BRANCH  28  29
ATOM     29  N   UNL     1      -8.878   3.107  -2.802  0.00  0.00    +0.000 NA
ATOM     30  H   UNL     1      -9.099   2.272  -3.363  0.00  0.00    +0.000 HD
BRANCH  29  31
ATOM     31  N   UNL     1     -10.098   3.862  -2.567  0.00  0.00    +0.000 NA
ATOM     32  H   UNL     1      -9.871   4.695  -2.005  0.00  0.00    +0.000 HD
ATOM     33  H   UNL     1     -10.759   3.271  -2.042  0.00  0.00    +0.000 HD
ENDBRANCH  29  31
ENDBRANCH  28  29
ENDBRANCH  27  28
ENDBRANCH  26  27
ENDBRANCH  24  26
ENDBRANCH  22  24
ENDBRANCH   1  22
TORSDOF 11
ENDMDL
MODEL      933
REMARK  Name = ZINC17218771
REMARK  7 active torsions:
REMARK  status: ('A' for Active; 'I' for Inactive)
REMARK    1  A    between atoms: C_1  and  O_2
REMARK    2  A    between atoms: O_2  and  N_3
REMARK    3  A    between atoms: C_4  and  C_5
REMARK    4  A    between atoms: C_4  and  C_11
REMARK    5  A    between atoms: N_13  and  C_14
REMARK    6  A    between atoms: N_16  and  C_19
REMARK    7  A    between atoms: C_19  and  C_20
REMARK                            x       y       z     vdW  Elec       q    Type
REMARK                         _______ _______ _______ _____ _____    ______ ____
ROOT
ATOM      1  C   UNL     1      -0.402  -6.450   1.940  0.00  0.00    +0.000 C 
ATOM      2  O   UNL     1      -0.245  -6.747   0.772  0.00  0.00    +0.000 OA
ATOM      3  N   UNL     1      -1.080  -5.332   2.266  0.00  0.00    +0.000 N 
ATOM      4  H   UNL     1      -1.299  -5.132   3.252  0.00  0.00    +0.000 HD
ENDROOT
BRANCH   3   5
ATOM      5  C   UNL     1      -1.486  -4.446   1.266  0.00  0.00    +0.000 A 
ATOM      6  C   UNL     1      -2.174  -3.271   1.369  0.00  0.00    +0.000 A 
ATOM      7  N   UNL     1      -2.440  -2.608   0.263  0.00  0.00    +0.000 N 
ATOM      8  C   UNL     1      -2.066  -3.056  -0.912  0.00  0.00    +0.000 A 
ATOM      9  S   UNL     1      -1.251  -4.534  -0.503  0.00  0.00    +0.000 S 
BRANCH   7  10
ATOM     10  C   UNL     1      -3.178  -1.345   0.345  0.00  0.00    +0.000 C 
BRANCH  10  11
ATOM     11  C   UNL     1      -2.205  -0.205   0.502  0.00  0.00    +0.000 C 
ATOM     12  O   UNL     1      -1.017  -0.425   0.541  0.00  0.00    +0.000 OA
ATOM     13  O   UNL     1      -2.657   1.055   0.598  0.00  0.00    +0.000 OA
ENDBRANCH  10  11
ENDBRANCH   7  10
ENDBRANCH   3   5
BRANCH   1  15
ATOM     14  N   UNL     1       0.105  -6.932   4.252  0.00  0.00    +0.000 NA
ATOM     15  C   UNL     1       0.153  -7.317   3.005  0.00  0.00    +0.000 C 
BRANCH  15  16
ATOM     16  C   UNL     1       0.759  -8.614   2.658  0.00  0.00    +0.000 A 
ATOM     17  C   UNL     1       1.354  -9.366   3.613  0.00  0.00    +0.000 A 
ATOM     18  S   UNL     1       1.901 -10.790   2.685  0.00  0.00    +0.000 S 
ATOM     19  C   UNL     1       1.308 -10.284   1.078  0.00  0.00    +0.000 A 
ATOM     20  N   UNL     1       1.397 -10.907  -0.069  0.00  0.00    +0.000 NA
ATOM     21  N   UNL     1       0.730  -9.066   1.364  0.00  0.00    +0.000 N 
ATOM     22  H   UNL     1       1.885 -11.810   0.014  0.00  0.00    +0.000 HD
ATOM     23  H   UNL     1       0.287  -8.507   0.622  0.00  0.00    +0.000 HD
ENDBRANCH  15  16
BRANCH  14  25
ATOM     24  C   UNL     1      -0.360  -5.348   5.974  0.00  0.00    +0.000 C 
ATOM     25  O   UNL     1      -0.361  -5.634   4.574  0.00  0.00    +0.000 OA
ENDBRANCH  14  25
ENDBRANCH   1  15
TORSDOF 6
ENDMDL
MODEL      934
REMARK  Name = ZINC12409987
REMARK  5 active torsions:
REMARK  status: ('A' for Active; 'I' for Inactive)
REMARK    1  A    between atoms: C_1  and  O_2
REMARK    2  A    between atoms: O_2  and  C_3
REMARK    3  A    between atoms: C_8  and  N_9
REMARK    4  A    between atoms: C_10  and  C_12
REMARK    5  A    between atoms: C_12  and  C_13
REMARK                            x       y       z     vdW  Elec       q    Type
REMARK                         _______ _______ _______ _____ _____    ______ ____
ROOT
ATOM      1  C   UNL     1       6.758   4.685  -0.550  0.00  0.00    +0.000 A 
ATOM      2  C   UNL     1       8.071   5.175   0.049  0.00  0.00    +0.000 A 
ATOM      3  O   UNL     1       8.793   5.978  -0.509  0.00  0.00    +0.000 OA
ATOM      4  N   UNL     1       8.351   4.656   1.215  0.00  0.00    +0.000 NA
ATOM      5  C   UNL     1       7.584   3.782   1.844  0.00  0.00    +0.000 A 
ATOM      6  S   UNL     1       6.229   3.540   0.786  0.00  0.00    +0.000 S 
ATOM      7  N   UNL     1       7.809   3.196   3.062  0.00  0.00    +0.000 N 
ATOM      8  C   UNL     1       8.949   3.505   3.776  0.00  0.00    +0.000 C 
ATOM      9  N   UNL     1       9.175   2.917   4.998  0.00  0.00    +0.000 N 
ATOM     10  N   UNL     1       9.785   4.375   3.230  0.00  0.00    +0.000 N 
ATOM     11  H   UNL     1       7.128   2.525   3.444  0.00  0.00    +0.000 HD
ATOM     12  H   UNL     1       8.493   2.247   5.380  0.00  0.00    +0.000 HD
ATOM     13  H   UNL     1      10.025   3.148   5.531  0.00  0.00    +0.000 HD
ATOM     14  H   UNL     1       9.604   4.808   2.313  0.00  0.00    +0.000 HD
ATOM     15  H   UNL     1      10.643   4.621   3.744  0.00  0.00    +0.000 HD
ENDROOT
BRANCH   1  16
ATOM     16  C   UNL     1       5.762   5.833  -0.729  0.00  0.00    +0.000 C 
BRANCH  16  18
ATOM     17  N   UNL     1       3.421   6.121  -1.473  0.00  0.00    +0.000 N 
ATOM     18  C   UNL     1       4.453   5.287  -1.240  0.00  0.00    +0.000 C 
ATOM     19  O   UNL     1       4.329   4.097  -1.441  0.00  0.00    +0.000 OA
ATOM     20  H   UNL     1       3.551   7.139  -1.384  0.00  0.00    +0.000 HD
BRANCH  17  26
ATOM     21  C   UNL     1       1.274   6.387  -2.560  0.00  0.00    +0.000 A 
ATOM     22  C   UNL     1       0.039   5.870  -2.917  0.00  0.00    +0.000 A 
ATOM     23  C   UNL     1      -0.300   4.579  -2.560  0.00  0.00    +0.000 A 
ATOM     24  C   UNL     1       0.587   3.801  -1.836  0.00  0.00    +0.000 A 
ATOM     25  C   UNL     1       1.822   4.310  -1.476  0.00  0.00    +0.000 A 
ATOM     26  C   UNL     1       2.170   5.604  -1.836  0.00  0.00    +0.000 A 
ATOM     27 CL   UNL     1       0.152   2.183  -1.385  0.00  0.00    +0.000 Cl
BRANCH  21  29
ATOM     28  C   UNL     1       0.642   8.400  -3.658  0.00  0.00    +0.000 C 
ATOM     29  O   UNL     1       1.611   7.655  -2.917  0.00  0.00    +0.000 OA
ENDBRANCH  21  29
ENDBRANCH  17  26
ENDBRANCH  16  18
ENDBRANCH   1  16
TORSDOF 4
ENDMDL
MODEL      935
REMARK  Name = ZINC06481780
REMARK  9 active torsions:
REMARK  status: ('A' for Active; 'I' for Inactive)
REMARK    1  A    between atoms: C_1  and  N_23
REMARK    2  A    between atoms: C_2  and  C_3
REMARK    3  A    between atoms: C_2  and  N_23
REMARK    4  A    between atoms: C_3  and  C_4
REMARK    5  A    between atoms: C_4  and  N_5
REMARK    6  A    between atoms: N_5  and  C_6
REMARK    7  A    between atoms: N_5  and  C_7
REMARK    8  A    between atoms: C_13  and  C_20
REMARK    9  A    between atoms: N_15  and  C_17
REMARK                            x       y       z     vdW  Elec       q    Type
REMARK                         _______ _______ _______ _____ _____    ______ ____
ROOT
ATOM      1  C   UNL     1       3.399   3.549   0.660  0.00  0.00    +0.000 A 
ATOM      2  C   UNL     1       3.541   2.158   0.671  0.00  0.00    +0.000 A 
ATOM      3  C   UNL     1       2.442   1.369   0.459  0.00  0.00    +0.000 A 
ATOM      4  C   UNL     1       1.210   1.997   0.239  0.00  0.00    +0.000 A 
ATOM      5  C   UNL     1      -0.014   1.215   0.004  0.00  0.00    +0.000 A 
ATOM      6  O   UNL     1       0.003  -0.004  -0.006  0.00  0.00    +0.000 OA
ATOM      7  C   UNL     1      -1.260   1.968  -0.223  0.00  0.00    +0.000 A 
ATOM      8  C   UNL     1      -1.217   3.346  -0.192  0.00  0.00    +0.000 A 
ATOM      9  N   UNL     1      -0.080   4.021   0.025  0.00  0.00    +0.000 N 
ATOM     10  C   UNL     1       1.129   3.400   0.240  0.00  0.00    +0.000 A 
ATOM     11  F   UNL     1       4.751   1.598   0.888  0.00  0.00    +0.000 F 
ATOM     12  N   UNL     1       2.219   4.199   0.450  0.00  0.00    +0.000 NA
ENDROOT
BRANCH   7  13
ATOM     13  C   UNL     1      -2.525   1.264  -0.471  0.00  0.00    +0.000 C 
ATOM     14  O   UNL     1      -2.551   0.048  -0.490  0.00  0.00    +0.000 OA
ATOM     15  O   UNL     1      -3.658   1.965  -0.677  0.00  0.00    +0.000 OA
ENDBRANCH   7  13
BRANCH   9  16
ATOM     16  C   UNL     1      -0.126   5.486   0.033  0.00  0.00    +0.000 C 
ATOM     17  C   UNL     1      -1.501   6.149   0.136  0.00  0.00    +0.000 C 
ATOM     18  C   UNL     1      -0.733   6.180  -1.187  0.00  0.00    +0.000 C 
ENDBRANCH   9  16
BRANCH   1  19
ATOM     19  N   UNL     1       4.511   4.346   0.874  0.00  0.00    +0.000 N 
ATOM     20  C   UNL     1       5.163   4.010   2.147  0.00  0.00    +0.000 C 
BRANCH  19  21
ATOM     21  C   UNL     1       4.156   5.771   0.825  0.00  0.00    +0.000 C 
BRANCH  21  22
ATOM     22  C   UNL     1       5.432   6.615   0.815  0.00  0.00    +0.000 C 
BRANCH  22  23
ATOM     23  C   UNL     1       5.062   8.098   0.764  0.00  0.00    +0.000 C 
BRANCH  23  25
ATOM     24  C   UNL     1       5.970  10.342   0.705  0.00  0.00    +0.000 C 
ATOM     25  N   UNL     1       6.297   8.905   0.755  0.00  0.00    +0.000 N 
ATOM     26  H   UNL     1       6.861   8.655  -0.070  0.00  0.00    +0.000 HD
ATOM     27  H   UNL     1       6.840   8.706   1.607  0.00  0.00    +0.000 HD
ENDBRANCH  23  25
ENDBRANCH  22  23
ENDBRANCH  21  22
ENDBRANCH  19  21
ENDBRANCH   1  19
TORSDOF 7
ENDMDL
MODEL      936
REMARK  Name = ZINC16899901
REMARK  10 active torsions:
REMARK  status: ('A' for Active; 'I' for Inactive)
REMARK    1  A    between atoms: C_1  and  O_2
REMARK    2  A    between atoms: O_2  and  C_3
REMARK    3  A    between atoms: C_6  and  N_11
REMARK    4  A    between atoms: C_7  and  O_9
REMARK    5  A    between atoms: O_9  and  C_10
REMARK    6  A    between atoms: C_15  and  S_18
REMARK    7  A    between atoms: S_18  and  C_19
REMARK    8  A    between atoms: C_19  and  C_20
REMARK    9  A    between atoms: C_20  and  C_21
REMARK   10  A    between atoms: C_20  and  N_24
REMARK                            x       y       z     vdW  Elec       q    Type
REMARK                         _______ _______ _______ _____ _____    ______ ____
ROOT
ATOM      1  N   UNK     1       0.002  -0.004   0.002  0.00  0.00    +0.000 N 
ATOM      2  C   UNK     1       1.228  -0.542  -0.013  0.00  0.00    +0.000 C 
ATOM      3  O   UNK     1       1.474  -1.729  -0.021  0.00  0.00    +0.000 OA
ATOM      4  C   UNK     1       2.258   0.566  -0.017  0.00  0.00    +0.000 C 
ATOM      5  C   UNK     1       1.406   1.852  -0.001  0.00  0.00    +0.000 C 
ATOM      6  C   UNK     1      -0.016   1.335   0.009  0.00  0.00    +0.000 C 
ATOM      7  O   UNK     1      -1.014   2.023   0.018  0.00  0.00    +0.000 OA
ENDROOT
BRANCH   1  11
ATOM      8  C   UNK     1      -3.478  -2.313   0.022  0.00  0.00    +0.000 A 
ATOM      9  C   UNK     1      -2.910  -1.921  -1.181  0.00  0.00    +0.000 A 
ATOM     10  C   UNK     1      -1.759  -1.157  -1.188  0.00  0.00    +0.000 A 
ATOM     11  C   UNK     1      -1.169  -0.780   0.009  0.00  0.00    +0.000 A 
ATOM     12  C   UNK     1      -1.735  -1.177   1.218  0.00  0.00    +0.000 A 
ATOM     13  C   UNK     1      -2.892  -1.938   1.222  0.00  0.00    +0.000 A 
BRANCH   8  15
ATOM     14  C   UNK     1      -5.161  -3.415  -1.246  0.00  0.00    +0.000 C 
ATOM     15  O   UNK     1      -4.611  -3.065   0.025  0.00  0.00    +0.000 OA
ENDBRANCH   8  15
BRANCH  12  16
ATOM     16  O   UNK     1      -1.155  -0.813   2.393  0.00  0.00    +0.000 OA
ATOM     17  C   UNK     1      -1.791  -1.256   3.594  0.00  0.00    +0.000 C 
ENDBRANCH  12  16
ENDBRANCH   1  11
BRANCH   5  18
ATOM     18  S   UNK     1       1.715   2.840  -1.491  0.00  0.00    +0.000 S 
BRANCH  18  19
ATOM     19  C   UNK     1       0.651   4.294  -1.281  0.00  0.00    +0.000 C 
BRANCH  19  20
ATOM     20  C   UNK     1       0.816   5.225  -2.485  0.00  0.00    +0.000 C 
BRANCH  20  21
ATOM     21  N   UNK     1       2.218   5.653  -2.584  0.00  0.00    +0.000 N 
ATOM     22  H   UNK     1       2.822   4.828  -2.704  0.00  0.00    +0.000 HD
ATOM     23  H   UNK     1       2.486   6.153  -1.725  0.00  0.00    +0.000 HD
ATOM     24  H   UNK     1       2.329   6.279  -3.394  0.00  0.00    +0.000 HD
ENDBRANCH  20  21
BRANCH  20  25
ATOM     25  C   UNK     1      -0.068   6.433  -2.310  0.00  0.00    +0.000 C 
ATOM     26  O   UNK     1       0.403   7.473  -1.915  0.00  0.00    +0.000 OA
ATOM     27  O   UNK     1      -1.377   6.353  -2.594  0.00  0.00    +0.000 OA
ENDBRANCH  20  25
ENDBRANCH  19  20
ENDBRANCH  18  19
ENDBRANCH   5  18
TORSDOF 8
ENDMDL
MODEL      937
REMARK  Name = ZINC06072813
REMARK  9 active torsions:
REMARK  status: ('A' for Active; 'I' for Inactive)
REMARK    1  A    between atoms: C_1  and  C_2
REMARK    2  A    between atoms: C_2  and  C_3
REMARK    3  A    between atoms: C_3  and  C_4
REMARK    4  A    between atoms: C_4  and  CA_5
REMARK    5  A    between atoms: CA_5  and  C_6
REMARK    6  A    between atoms: CA_5  and  N_25
REMARK    7  A    between atoms: C_8  and  C_9
REMARK    8  A    between atoms: C_8  and  N_25
REMARK    9  A    between atoms: C_17  and  O_20
REMARK                            x       y       z     vdW  Elec       q    Type
REMARK                         _______ _______ _______ _____ _____    ______ ____
ROOT
ATOM      1  C   UNL     1       1.193   3.190   0.006  0.00  0.00    +0.000 A 
ATOM      2  C   UNL     1       1.200   1.792   0.000  0.00  0.00    +0.000 A 
ATOM      3  O   UNL     1       2.359   1.134  -0.013  0.00  0.00    +0.000 OA
ATOM      4  C   UNL     1      -0.013   1.076   0.008  0.00  0.00    +0.000 A 
ATOM      5  C   UNL     1      -1.200   1.735   0.017  0.00  0.00    +0.000 A 
ATOM      6  C   UNL     1      -1.222   3.142   0.030  0.00  0.00    +0.000 A 
ATOM      7  C   UNL     1      -2.443   3.844   0.047  0.00  0.00    +0.000 A 
ATOM      8  C   UNL     1      -2.416   5.224   0.053  0.00  0.00    +0.000 A 
ATOM      9  C   UNL     1      -1.196   5.887   0.042  0.00  0.00    +0.000 A 
ATOM     10  O   UNL     1      -0.038   5.218   0.026  0.00  0.00    +0.000 OA
ATOM     11  C   UNL     1      -0.010   3.869   0.020  0.00  0.00    +0.000 A 
ATOM     12  C   UNL     1      -3.830   5.762   0.072  0.00  0.00    +0.000 C 
ATOM     13  C   UNL     1      -4.709   4.573   0.516  0.00  0.00    +0.000 C 
ATOM     14  C   UNL     1      -3.874   3.356   0.062  0.00  0.00    +0.000 C 
ENDROOT
BRANCH   9  15
ATOM     15  O   UNL     1      -1.178   7.234   0.047  0.00  0.00    +0.000 OA
ATOM     16  H   UNL     1      -1.692   7.498   0.851  0.00  0.00    +0.000 HD
ENDBRANCH   9  15
BRANCH   1  17
ATOM     17  C   UNL     1       2.493   3.953  -0.004  0.00  0.00    +0.000 C 
BRANCH  17  18
ATOM     18  N   UNL     1       2.896   4.203  -1.401  0.00  0.00    +0.000 N 
ATOM     19  H1  UNL     1       2.163   4.751  -1.874  0.00  0.00    +0.000 HD
ATOM     20  H2  UNL     1       3.011   3.303  -1.889  0.00  0.00    +0.000 HD
BRANCH  18  21
ATOM     21  CA  UNL     1       4.167   4.950  -1.441  0.00  0.00    +0.000 C 
BRANCH  21  22
ATOM     22  C   UNL     1       3.888   6.426  -1.322  0.00  0.00    +0.000 C 
ATOM     23  O   UNL     1       2.751   6.818  -1.208  0.00  0.00    +0.000 OA
ATOM     24  OXT UNL     1       4.902   7.304  -1.343  0.00  0.00    +0.000 OA
ENDBRANCH  21  22
BRANCH  21  25
ATOM     25  C   UNL     1       4.872   4.670  -2.770  0.00  0.00    +0.000 C 
BRANCH  25  26
ATOM     26  C   UNL     1       5.267   3.193  -2.837  0.00  0.00    +0.000 C 
BRANCH  26  28
ATOM     27  C   UNL     1       6.366   1.436  -4.232  0.00  0.00    +0.000 C 
ATOM     28  C   UNL     1       5.971   2.913  -4.166  0.00  0.00    +0.000 C 
ENDBRANCH  26  28
ENDBRANCH  25  26
ENDBRANCH  21  25
ENDBRANCH  18  21
ENDBRANCH  17  18
ENDBRANCH   1  17
TORSDOF 8
ENDMDL
MODEL      938
REMARK  Name = ZINC09546414
REMARK  8 active torsions:
REMARK  status: ('A' for Active; 'I' for Inactive)
REMARK    1  A    between atoms: C_1  and  C_2
REMARK    2  A    between atoms: C_2  and  N_24
REMARK    3  A    between atoms: C_7  and  C_8
REMARK    4  A    between atoms: C_7  and  N_25
REMARK    5  A    between atoms: C_9  and  C_19
REMARK    6  A    between atoms: C_19  and  O_21
REMARK    7  A    between atoms: O_21  and  C_22
REMARK    8  A    between atoms: C_22  and  C_23
REMARK                            x       y       z     vdW  Elec       q    Type
REMARK                         _______ _______ _______ _____ _____    ______ ____
ROOT
ATOM      1  C   UNL     1      -1.383  -2.120   0.004  0.00  0.00    +0.000 A 
ATOM      2  C   UNL     1      -1.264  -0.758   0.010  0.00  0.00    +0.000 A 
ATOM      3  N   UNL     1      -2.498  -0.223   0.031  0.00  0.00    +0.000 NA
ATOM      4  N   UNL     1      -3.376  -1.165   0.029  0.00  0.00    +0.000 NA
ATOM      5  N   UNL     1      -2.706  -2.396   0.016  0.00  0.00    +0.000 N 
ATOM      6  C   UNL     1      -3.293  -3.666   0.015  0.00  0.00    +0.000 A 
ATOM      7  C   UNL     1      -4.732  -3.946   0.028  0.00  0.00    +0.000 A 
ATOM      8  N   UNL     1      -4.898  -5.240   0.022  0.00  0.00    +0.000 NA
ATOM      9  O   UNL     1      -3.616  -5.842   0.005  0.00  0.00    +0.000 OA
ATOM     10  N   UNL     1      -2.654  -4.801  -0.004  0.00  0.00    +0.000 NA
ATOM     11  N   UNL     1      -5.746  -2.995   0.044  0.00  0.00    +0.000 N 
ATOM     12  H   UNL     1      -5.436  -2.012   0.047  0.00  0.00    +0.000 HD
ATOM     13  H   UNL     1      -6.746  -3.239   0.053  0.00  0.00    +0.000 HD
ENDROOT
BRANCH   2  14
ATOM     14  C   UNL     1       0.002  -0.004   0.002  0.00  0.00    +0.000 C 
ATOM     15  O   UNL     1       1.062  -0.597  -0.011  0.00  0.00    +0.000 OA
BRANCH  14  16
ATOM     16  O   UNL     1      -0.016   1.343   0.009  0.00  0.00    +0.000 OA
BRANCH  16  17
ATOM     17  C   UNL     1       1.268   2.020   0.001  0.00  0.00    +0.000 C 
ATOM     18  C   UNL     1       1.047   3.534   0.011  0.00  0.00    +0.000 C 
ENDBRANCH  16  17
ENDBRANCH  14  16
ENDBRANCH   2  14
BRANCH   1  19
ATOM     19  C   UNL     1      -0.256  -3.120  -0.013  0.00  0.00    +0.000 C 
BRANCH  19  25
ATOM     20  C   UNL     1       1.711  -4.464  -2.930  0.00  0.00    +0.000 C 
ATOM     21  C   UNL     1       1.337  -4.222  -1.466  0.00  0.00    +0.000 C 
ATOM     22  C   UNL     1      -1.004  -4.144  -2.076  0.00  0.00    +0.000 C 
ATOM     23  C   UNL     1      -0.629  -4.385  -3.541  0.00  0.00    +0.000 C 
ATOM     24  N   UNL     1       0.607  -5.193  -3.589  0.00  0.00    +0.000 N 
ATOM     25  N   UNL     1       0.100  -3.414  -1.417  0.00  0.00    +0.000 NA
ATOM     26  H   UNL     1       0.448  -6.081  -3.092  0.00  0.00    +0.000 HD
BRANCH  24  28
ATOM     27  C   UNL     1      -0.087  -6.429  -5.583  0.00  0.00    +0.000 C 
ATOM     28  C   UNL     1       0.964  -5.487  -4.994  0.00  0.00    +0.000 C 
ENDBRANCH  24  28
ENDBRANCH  19  25
ENDBRANCH   1  19
TORSDOF 6
ENDMDL
MODEL      939
REMARK  Name = ZINC30521525
REMARK  9 active torsions:
REMARK  status: ('A' for Active; 'I' for Inactive)
REMARK    1  A    between atoms: C_1  and  N_2
REMARK    2  A    between atoms: N_2  and  C_3
REMARK    3  A    between atoms: N_2  and  C_4
REMARK    4  A    between atoms: C_4  and  C_5
REMARK    5  A    between atoms: C_5  and  N_6
REMARK    6  A    between atoms: C_7  and  C_9
REMARK    7  A    between atoms: C_12  and  N_15
REMARK    8  A    between atoms: C_16  and  C_18
REMARK    9  A    between atoms: C_23  and  C_24
REMARK                            x       y       z     vdW  Elec       q    Type
REMARK                         _______ _______ _______ _____ _____    ______ ____
ROOT
ATOM      1  C   UNL     1       2.501   5.629  -0.026  0.00  0.00    +0.000 A 
ATOM      2  C   UNL     1       1.305   6.316  -0.250  0.00  0.00    +0.000 A 
ATOM      3  C   UNL     1       1.292   7.693  -0.241  0.00  0.00    +0.000 A 
ATOM      4  C   UNL     1       2.470   8.400  -0.020  0.00  0.00    +0.000 A 
ATOM      5  C   UNL     1       3.663   7.718   0.197  0.00  0.00    +0.000 A 
ATOM      6  C   UNL     1       3.682   6.342   0.195  0.00  0.00    +0.000 A 
ENDROOT
BRANCH   1   8
ATOM      7  N   UNL     1       1.377   3.466  -0.242  0.00  0.00    +0.000 N 
ATOM      8  C   UNL     1       2.517   4.153  -0.029  0.00  0.00    +0.000 C 
ATOM      9  O   UNL     1       3.560   3.556   0.162  0.00  0.00    +0.000 OA
ATOM     10  H   UNL     1       0.494   3.972  -0.403  0.00  0.00    +0.000 HD
BRANCH   7  11
ATOM     11  C   UNL     1       1.394   2.002  -0.245  0.00  0.00    +0.000 C 
BRANCH  11  12
ATOM     12  C   UNL     1      -0.019   1.476  -0.508  0.00  0.00    +0.000 C 
BRANCH  12  14
ATOM     13  C   UNL     1       0.323  -0.518   0.822  0.00  0.00    +0.000 C 
ATOM     14  N   UNL     1      -0.003   0.007  -0.511  0.00  0.00    +0.000 N 
ATOM     15  C   UNL     1      -1.282  -0.532  -0.991  0.00  0.00    +0.000 C 
ATOM     16  H   UNL     1       0.735  -0.300  -1.161  0.00  0.00    +0.000 HD
ENDBRANCH  12  14
ENDBRANCH  11  12
ENDBRANCH   7  11
ENDBRANCH   1   8
BRANCH   4  17
ATOM     17  N   UNL     1       2.454   9.794  -0.017  0.00  0.00    +0.000 N 
ATOM     18  C   UNL     1       3.523  10.481  -0.468  0.00  0.00    +0.000 C 
ATOM     19  O   UNL     1       4.459   9.890  -0.962  0.00  0.00    +0.000 OA
ATOM     20  H   UNL     1       1.626  10.299   0.329  0.00  0.00    +0.000 HD
BRANCH  18  21
ATOM     21  C   UNL     1       3.554  11.983  -0.357  0.00  0.00    +0.000 C 
ATOM     22  C   UNL     1       4.217  12.577  -1.602  0.00  0.00    +0.000 C 
ATOM     23  C   UNL     1       5.687  12.271  -1.600  0.00  0.00    +0.000 C 
ATOM     24  C   UNL     1       6.347  11.891  -0.553  0.00  0.00    +0.000 C 
ATOM     25  C   UNL     1       5.733  11.694   0.802  0.00  0.00    +0.000 C 
ATOM     26  C   UNL     1       4.374  12.393   0.872  0.00  0.00    +0.000 C 
BRANCH  26  27
ATOM     27  C   UNL     1       3.652  11.973   2.126  0.00  0.00    +0.000 C 
ATOM     28  O   UNL     1       2.590  11.402   2.049  0.00  0.00    +0.000 OA
ATOM     29  O   UNL     1       4.189  12.231   3.329  0.00  0.00    +0.000 OA
ENDBRANCH  26  27
ENDBRANCH  18  21
ENDBRANCH   4  17
TORSDOF 7
ENDMDL
MODEL      940
REMARK  Name = ZINC32036344
REMARK  7 active torsions:
REMARK  status: ('A' for Active; 'I' for Inactive)
REMARK    1  A    between atoms: N_5  and  C_6
REMARK    2  A    between atoms: C_6  and  C_7
REMARK    3  A    between atoms: C_7  and  O_8
REMARK    4  A    between atoms: O_8  and  C_9
REMARK    5  A    between atoms: C_9  and  P_10
REMARK    6  A    between atoms: P_10  and  O_13
REMARK    7  A    between atoms: C_17  and  N_18
REMARK                            x       y       z     vdW  Elec       q    Type
REMARK                         _______ _______ _______ _____ _____    ______ ____
ROOT
ATOM      1  C   UNL     1       2.862   3.418  -0.008  0.00  0.00    +0.000 A 
ATOM      2  N   UNL     1       1.565   3.321   0.004  0.00  0.00    +0.000 NA
ATOM      3  C   UNL     1       1.209   2.013   0.001  0.00  0.00    +0.000 A 
ATOM      4  C   UNL     1       2.396   1.262  -0.014  0.00  0.00    +0.000 A 
ATOM      5  N   UNL     1       3.421   2.173  -0.019  0.00  0.00    +0.000 N 
ATOM      6  N   UNL     1       2.322  -0.066  -0.021  0.00  0.00    +0.000 NA
ATOM      7  C   UNL     1       1.147  -0.674  -0.013  0.00  0.00    +0.000 A 
ATOM      8  N   UNL     1       0.002  -0.004   0.002  0.00  0.00    +0.000 NA
ATOM      9  C   UNL     1      -0.016   1.324   0.009  0.00  0.00    +0.000 A 
ATOM     10  N   UNL     1       1.111  -2.059  -0.020  0.00  0.00    +0.000 N 
ATOM     11  H   UNL     1       1.982  -2.609  -0.032  0.00  0.00    +0.000 HD
ATOM     12  H   UNL     1       0.202  -2.542  -0.014  0.00  0.00    +0.000 HD
ENDROOT
BRANCH   9  13
ATOM     13  N   UNL     1      -1.215   2.015   0.019  0.00  0.00    +0.000 N 
ATOM     14  C   UNL     1      -1.364   2.840  -1.207  0.00  0.00    +0.000 C 
ATOM     15  C   UNL     1      -2.891   3.090  -1.283  0.00  0.00    +0.000 C 
ATOM     16  C   UNL     1      -3.486   1.748  -0.798  0.00  0.00    +0.000 C 
ATOM     17  C   UNL     1      -2.363   1.083   0.019  0.00  0.00    +0.000 C 
ENDBRANCH   9  13
BRANCH   5  18
ATOM     18  C   UNL     1       4.854   1.866  -0.036  0.00  0.00    +0.000 C 
BRANCH  18  19
ATOM     19  C   UNL     1       5.311   1.645  -1.479  0.00  0.00    +0.000 C 
BRANCH  19  20
ATOM     20  O   UNL     1       6.709   1.345  -1.494  0.00  0.00    +0.000 OA
BRANCH  20  21
ATOM     21  C   UNL     1       7.240   1.120  -2.802  0.00  0.00    +0.000 C 
BRANCH  21  22
ATOM     22  P   UNL     1       7.408   2.712  -3.672  0.00  0.00    +0.000 P 
ATOM     23  O   UNL     1       6.080   3.356  -3.784  0.00  0.00    +0.000 OA
ATOM     24  O   UNL     1       8.403   3.673  -2.847  0.00  0.00    +0.000 OA
BRANCH  22  25
ATOM     25  O   UNL     1       8.007   2.458  -5.145  0.00  0.00    +0.000 OA
ATOM     26  H   UNL     1       7.396   1.868  -5.654  0.00  0.00    +0.000 HD
ENDBRANCH  22  25
ENDBRANCH  21  22
ENDBRANCH  20  21
ENDBRANCH  19  20
ENDBRANCH  18  19
ENDBRANCH   5  18
TORSDOF 7
ENDMDL
MODEL      941
REMARK  Name = ZINC25398141
REMARK  10 active torsions:
REMARK  status: ('A' for Active; 'I' for Inactive)
REMARK    1  A    between atoms: C_1  and  N_2
REMARK    2  A    between atoms: N_9  and  C_14
REMARK    3  A    between atoms: N_12  and  C_13
REMARK    4  A    between atoms: C_14  and  C_15
REMARK    5  A    between atoms: N_17  and  C_18
REMARK    6  A    between atoms: C_18  and  C_19
REMARK    7  A    between atoms: N_21  and  C_22
REMARK    8  A    between atoms: C_22  and  C_23
REMARK    9  A    between atoms: C_23  and  O_24
REMARK   10  A    between atoms: O_24  and  C_25
REMARK                            x       y       z     vdW  Elec       q    Type
REMARK                         _______ _______ _______ _____ _____    ______ ____
ROOT
ATOM      1  C   UNL     1      -1.293  -0.775   0.010  0.00  0.00    +0.000 C 
ENDROOT
BRANCH   1  10
ATOM      2  C   UNL     1      -0.415  -5.006   3.574  0.00  0.00    +0.000 C 
ATOM      3  N   UNL     1      -0.386  -5.214   2.124  0.00  0.00    +0.000 N 
ATOM      4  C   UNL     1      -0.159  -6.378   1.485  0.00  0.00    +0.000 A 
ATOM      5  N   UNL     1      -0.208  -6.189   0.191  0.00  0.00    +0.000 NA
ATOM      6  C   UNL     1      -0.467  -4.905  -0.069  0.00  0.00    +0.000 A 
ATOM      7  C   UNL     1      -0.587  -4.254   1.152  0.00  0.00    +0.000 A 
ATOM      8  C   UNL     1      -0.864  -2.870   1.169  0.00  0.00    +0.000 A 
ATOM      9  O   UNL     1      -0.974  -2.276   2.227  0.00  0.00    +0.000 OA
ATOM     10  N   UNL     1      -1.005  -2.212  -0.000  0.00  0.00    +0.000 N 
ATOM     11  C   UNL     1      -0.892  -2.856  -1.175  0.00  0.00    +0.000 A 
ATOM     12  O   UNL     1      -1.031  -2.231  -2.209  0.00  0.00    +0.000 OA
ATOM     13  N   UNL     1      -0.624  -4.174  -1.235  0.00  0.00    +0.000 N 
ATOM     14  C   UNL     1      -0.503  -4.837  -2.536  0.00  0.00    +0.000 C 
ENDBRANCH   1  10
BRANCH   1  15
ATOM     15  C   UNL     1       0.002  -0.004   0.002  0.00  0.00    +0.000 C 
ATOM     16  O   UNL     1       1.060  -0.596  -0.011  0.00  0.00    +0.000 OA
ATOM     17  N   UNL     1      -0.016   1.344   0.009  0.00  0.00    +0.000 N 
ATOM     18  H   UNL     1      -0.915   1.846   0.021  0.00  0.00    +0.000 HD
BRANCH  17  19
ATOM     19  C   UNL     1       1.242   2.093   0.001  0.00  0.00    +0.000 C 
BRANCH  19  20
ATOM     20  C   UNL     1       0.947   3.571   0.012  0.00  0.00    +0.000 C 
ATOM     21  O   UNL     1      -0.202   3.960   0.025  0.00  0.00    +0.000 OA
ATOM     22  N   UNL     1       1.959   4.461   0.007  0.00  0.00    +0.000 N 
ATOM     23  H   UNL     1       2.935   4.130  -0.004  0.00  0.00    +0.000 HD
BRANCH  22  24
ATOM     24  C   UNL     1       1.672   5.897   0.018  0.00  0.00    +0.000 C 
BRANCH  24  25
ATOM     25  C   UNL     1       2.987   6.680   0.009  0.00  0.00    +0.000 C 
BRANCH  25  26
ATOM     26  O   UNL     1       3.676   6.441  -1.220  0.00  0.00    +0.000 OA
ATOM     27  C   UNL     1       4.923   7.130  -1.330  0.00  0.00    +0.000 C 
ENDBRANCH  25  26
ENDBRANCH  24  25
ENDBRANCH  22  24
ENDBRANCH  19  20
ENDBRANCH  17  19
ENDBRANCH   1  15
TORSDOF 7
ENDMDL
MODEL      942
REMARK  Name = ZINC09688061
REMARK  10 active torsions:
REMARK  status: ('A' for Active; 'I' for Inactive)
REMARK    1  A    between atoms: C_1  and  N_2
REMARK    2  A    between atoms: C_6  and  S_7
REMARK    3  A    between atoms: S_7  and  C_8
REMARK    4  A    between atoms: C_8  and  C_9
REMARK    5  A    between atoms: C_9  and  C_11
REMARK    6  A    between atoms: C_12  and  N_23
REMARK    7  A    between atoms: N_13  and  C_19
REMARK    8  A    between atoms: C_19  and  C_20
REMARK    9  A    between atoms: C_20  and  O_21
REMARK   10  A    between atoms: O_21  and  C_22
REMARK                            x       y       z     vdW  Elec       q    Type
REMARK                         _______ _______ _______ _____ _____    ______ ____
ROOT
ATOM      1  C   UNL     1      -0.103   8.390   0.060  0.00  0.00    +0.000 A 
ATOM      2  C   UNL     1       0.411   9.694   0.162  0.00  0.00    +0.000 A 
ATOM      3  N   UNL     1      -0.456  10.749   0.154  0.00  0.00    +0.000 N 
ATOM      4  C   UNL     1      -1.782  10.562   0.063  0.00  0.00    +0.000 A 
ATOM      5  O   UNL     1      -2.513  11.533   0.064  0.00  0.00    +0.000 OA
ATOM      6  N   UNL     1      -2.332   9.340  -0.031  0.00  0.00    +0.000 N 
ATOM      7  C   UNL     1      -1.560   8.233  -0.037  0.00  0.00    +0.000 A 
ATOM      8  O   UNL     1      -2.061   7.127  -0.122  0.00  0.00    +0.000 OA
ATOM      9  H   UNL     1      -3.355   9.246  -0.099  0.00  0.00    +0.000 HD
ENDROOT
BRANCH   2  10
ATOM     10  N   UNL     1       1.752   9.903   0.261  0.00  0.00    +0.000 N 
ATOM     11  H   UNL     1       2.394   9.097   0.261  0.00  0.00    +0.000 HD
ATOM     12  H   UNL     1       2.125  10.860   0.335  0.00  0.00    +0.000 HD
ENDBRANCH   2  10
BRANCH   1  13
ATOM     13  C   UNL     1       0.752   7.268   0.059  0.00  0.00    +0.000 C 
ATOM     14  O   UNL     1       1.957   7.423   0.038  0.00  0.00    +0.000 OA
BRANCH  13  15
ATOM     15  C   UNL     1       0.171   5.878   0.083  0.00  0.00    +0.000 C 
BRANCH  15  16
ATOM     16  S   UNL     1       1.513   4.663   0.074  0.00  0.00    +0.000 S 
BRANCH  16  22
ATOM     17  C   UNL     1       2.482   1.501   0.092  0.00  0.00    +0.000 C 
ATOM     18  N   UNL     1       1.073   1.900   0.111  0.00  0.00    +0.000 N 
ATOM     19  C   UNL     1      -0.018   1.075   0.138  0.00  0.00    +0.000 A 
ATOM     20  N   UNL     1      -1.077   1.834   0.141  0.00  0.00    +0.000 NA
ATOM     21  N   UNL     1      -0.734   3.072   0.128  0.00  0.00    +0.000 NA
ATOM     22  C   UNL     1       0.576   3.171   0.105  0.00  0.00    +0.000 A 
ENDBRANCH  16  22
ENDBRANCH  15  16
ENDBRANCH  13  15
ENDBRANCH   1  13
BRANCH   3  23
ATOM     23  C   UNL     1       0.070  12.113   0.253  0.00  0.00    +0.000 C 
BRANCH  23  24
ATOM     24  C   UNL     1       0.165  12.517   1.725  0.00  0.00    +0.000 C 
BRANCH  24  25
ATOM     25  O   UNL     1       1.127  11.692   2.385  0.00  0.00    +0.000 OA
ATOM     26  C   UNL     1       1.292  11.989   3.773  0.00  0.00    +0.000 C 
ENDBRANCH  24  25
ENDBRANCH  23  24
ENDBRANCH   3  23
TORSDOF 8
ENDMDL
MODEL      943
REMARK  Name = ZINC10236201
REMARK  9 active torsions:
REMARK  status: ('A' for Active; 'I' for Inactive)
REMARK    1  A    between atoms: C_1  and  C_2
REMARK    2  A    between atoms: C_2  and  C_3
REMARK    3  A    between atoms: C_3  and  C_4
REMARK    4  A    between atoms: C_3  and  C_6
REMARK    5  A    between atoms: C_6  and  C_8
REMARK    6  A    between atoms: C_8  and  O_9
REMARK    7  A    between atoms: O_9  and  C_10
REMARK    8  A    between atoms: C_10  and  C_12
REMARK    9  A    between atoms: C_12  and  N_13
REMARK                            x       y       z     vdW  Elec       q    Type
REMARK                         _______ _______ _______ _____ _____    ______ ____
ROOT
ATOM      1  C   UNL     1       4.825   0.628  -0.073  0.00  0.00    +0.000 C 
ENDROOT
BRANCH   1   2
ATOM      2  N   UNL     1       6.049   1.432  -0.117  0.00  0.00    +0.000 N 
ATOM      3  C   UNL     1       6.648   1.837   1.067  0.00  0.00    +0.000 A 
ATOM      4  C   UNL     1       6.117   1.499   2.302  0.00  0.00    +0.000 A 
ATOM      5  C   UNL     1       6.744   1.922   3.457  0.00  0.00    +0.000 A 
ATOM      6  C   UNL     1       7.902   2.682   3.394  0.00  0.00    +0.000 A 
ATOM      7  C   UNL     1       8.446   3.027   2.175  0.00  0.00    +0.000 A 
ATOM      8  C   UNL     1       7.822   2.607   1.002  0.00  0.00    +0.000 A 
ATOM      9  C   UNL     1       8.360   2.948  -0.327  0.00  0.00    +0.000 A 
ATOM     10  O   UNL     1       9.373   3.612  -0.438  0.00  0.00    +0.000 OA
ATOM     11  N   UNL     1       7.699   2.504  -1.418  0.00  0.00    +0.000 N 
ATOM     12  C   UNL     1       6.584   1.766  -1.304  0.00  0.00    +0.000 A 
ATOM     13  O   UNL     1       6.030   1.388  -2.319  0.00  0.00    +0.000 OA
ATOM     14  H   UNL     1       8.058   2.736  -2.355  0.00  0.00    +0.000 HD
ENDBRANCH   1   2
BRANCH   1  15
ATOM     15  C   UNL     1       3.625   1.540  -0.069  0.00  0.00    +0.000 C 
ATOM     16  O   UNL     1       3.777   2.738  -0.099  0.00  0.00    +0.000 OA
BRANCH  15  17
ATOM     17  O   UNL     1       2.388   1.020  -0.031  0.00  0.00    +0.000 OA
BRANCH  17  18
ATOM     18  C   UNL     1       1.279   1.958  -0.029  0.00  0.00    +0.000 C 
BRANCH  18  19
ATOM     19  C   UNL     1      -0.021   1.198   0.015  0.00  0.00    +0.000 C 
ATOM     20  O   UNL     1      -0.014  -0.016   0.043  0.00  0.00    +0.000 OA
BRANCH  19  21
ATOM     21  C   UNL     1      -1.251   1.899   0.019  0.00  0.00    +0.000 C 
BRANCH  21  23
ATOM     22  C   UNL     1      -1.777   0.873  -2.203  0.00  0.00    +0.000 C 
ATOM     23  C   UNL     1      -2.106   1.803  -1.064  0.00  0.00    +0.000 C 
ATOM     24  N   UNL     1      -3.235   2.541  -1.101  0.00  0.00    +0.000 NA
ATOM     25  H   UNL     1      -3.871   2.469  -1.907  0.00  0.00    +0.000 HD
ENDBRANCH  21  23
BRANCH  21  26
ATOM     26  C   UNL     1      -1.610   2.709   1.145  0.00  0.00    +0.000 C 
ATOM     27  N   UNL     1      -1.895   3.351   2.038  0.00  0.00    +0.000 NA
ENDBRANCH  21  26
ENDBRANCH  19  21
ENDBRANCH  18  19
ENDBRANCH  17  18
ENDBRANCH  15  17
ENDBRANCH   1  15
TORSDOF 8
ENDMDL
MODEL      944
REMARK  Name = ZINC06157445
REMARK  8 active torsions:
REMARK  status: ('A' for Active; 'I' for Inactive)
REMARK    1  A    between atoms: C_1  and  C_2
REMARK    2  A    between atoms: C_2  and  C_3
REMARK    3  A    between atoms: C_3  and  C_4
REMARK    4  A    between atoms: C_3  and  C_6
REMARK    5  A    between atoms: C_6  and  C_8
REMARK    6  A    between atoms: C_8  and  N_9
REMARK    7  A    between atoms: C_12  and  C_16
REMARK    8  A    between atoms: C_16  and  C_17
REMARK                            x       y       z     vdW  Elec       q    Type
REMARK                         _______ _______ _______ _____ _____    ______ ____
ROOT
ATOM      1  N   UNL     1       5.743  -1.382  -3.070  0.00  0.00    +0.000 N 
ATOM      2  C   UNL     1       4.631  -0.918  -2.467  0.00  0.00    +0.000 C 
ATOM      3  O   UNL     1       3.828  -1.556  -1.820  0.00  0.00    +0.000 OA
ATOM      4  C   UNL     1       4.592   0.568  -2.766  0.00  0.00    +0.000 C 
ATOM      5  N   UNL     1       5.801   0.788  -3.579  0.00  0.00    +0.000 NA
ATOM      6  C   UNL     1       6.406  -0.407  -3.702  0.00  0.00    +0.000 C 
ATOM      7  O   UNL     1       7.439  -0.581  -4.317  0.00  0.00    +0.000 OA
ENDROOT
BRANCH   4   8
ATOM      8  C   UNL     1       4.659   1.379  -1.471  0.00  0.00    +0.000 C 
BRANCH   8   9
ATOM      9  C   UNL     1       4.496   2.844  -1.786  0.00  0.00    +0.000 A 
ATOM     10  C   UNL     1       5.482   3.734  -1.976  0.00  0.00    +0.000 A 
ATOM     11  N   UNL     1       4.953   4.968  -2.242  0.00  0.00    +0.000 N 
ATOM     12  C   UNL     1       3.578   4.899  -2.231  0.00  0.00    +0.000 A 
ATOM     13  C   UNL     1       3.231   3.565  -1.945  0.00  0.00    +0.000 A 
ATOM     14  C   UNL     1       1.887   3.196  -1.868  0.00  0.00    +0.000 A 
ATOM     15  C   UNL     1       0.913   4.132  -2.077  0.00  0.00    +0.000 A 
ATOM     16  C   UNL     1       1.250   5.450  -2.354  0.00  0.00    +0.000 A 
ATOM     17  C   UNL     1       2.570   5.836  -2.434  0.00  0.00    +0.000 A 
ATOM     18  H   UNL     1       5.501   5.820  -2.424  0.00  0.00    +0.000 HD
ENDBRANCH   8   9
ENDBRANCH   4   8
BRANCH   1  19
ATOM     19  C   UNL     1       6.173  -2.783  -3.038  0.00  0.00    +0.000 C 
BRANCH  19  20
ATOM     20  C   UNL     1       5.573  -3.519  -4.208  0.00  0.00    +0.000 C 
ATOM     21  O   UNL     1       4.856  -2.931  -4.993  0.00  0.00    +0.000 OA
BRANCH  20  22
ATOM     22  C   UNL     1       5.845  -4.896  -4.393  0.00  0.00    +0.000 C 
BRANCH  22  24
ATOM     23  C   UNL     1       4.089  -4.949  -6.178  0.00  0.00    +0.000 C 
ATOM     24  C   UNL     1       5.197  -5.601  -5.392  0.00  0.00    +0.000 C 
ATOM     25  N   UNL     1       5.558  -6.873  -5.662  0.00  0.00    +0.000 N 
ATOM     26  H   UNL     1       5.075  -7.398  -6.406  0.00  0.00    +0.000 HD
ATOM     27  H   UNL     1       6.315  -7.318  -5.125  0.00  0.00    +0.000 HD
ENDBRANCH  22  24
BRANCH  22  28
ATOM     28  C   UNL     1       6.791  -5.559  -3.547  0.00  0.00    +0.000 C 
ATOM     29  N   UNL     1       7.541  -6.085  -2.875  0.00  0.00    +0.000 NA
ENDBRANCH  22  28
ENDBRANCH  20  22
ENDBRANCH  19  20
ENDBRANCH   1  19
TORSDOF 7
ENDMDL
MODEL      945
REMARK  Name = ZINC20424243
REMARK  7 active torsions:
REMARK  status: ('A' for Active; 'I' for Inactive)
REMARK    1  A    between atoms: C_1  and  C_2
REMARK    2  A    between atoms: C_3  and  C_8
REMARK    3  A    between atoms: N_5  and  C_7
REMARK    4  A    between atoms: N_9  and  N_10
REMARK    5  A    between atoms: C_13  and  S_16
REMARK    6  A    between atoms: S_16  and  C_17
REMARK    7  A    between atoms: C_17  and  C_18
REMARK                            x       y       z     vdW  Elec       q    Type
REMARK                         _______ _______ _______ _____ _____    ______ ____
ROOT
ATOM      1  N   UNL     1      11.581  -2.447  -0.121  0.00  0.00    +0.000 N 
ATOM      2  C   UNL     1      10.338  -1.831  -0.106  0.00  0.00    +0.000 A 
ATOM      3  N   UNL     1       9.127  -2.465  -0.098  0.00  0.00    +0.000 NA
ATOM      4  C   UNL     1       8.150  -1.510  -0.084  0.00  0.00    +0.000 A 
ATOM      5  N   UNL     1       8.733  -0.335  -0.089  0.00  0.00    +0.000 NA
ATOM      6  N   UNL     1      10.119  -0.538  -0.097  0.00  0.00    +0.000 N 
ATOM      7  H   UNL     1      11.647  -3.474  -0.127  0.00  0.00    +0.000 HD
ATOM      8  H   UNL     1      10.839   0.198  -0.097  0.00  0.00    +0.000 HD
ENDROOT
BRANCH   1  10
ATOM      9  C   UNL     1      13.910  -2.246  -0.142  0.00  0.00    +0.000 C 
ATOM     10  N   UNL     1      12.748  -1.670  -0.128  0.00  0.00    +0.000 NA
BRANCH   9  13
ATOM     11  C   UNL     1      14.029   0.922  -0.128  0.00  0.00    +0.000 C 
ATOM     12  C   UNL     1      15.206  -0.019  -0.143  0.00  0.00    +0.000 A 
ATOM     13  C   UNL     1      15.139  -1.429  -0.149  0.00  0.00    +0.000 A 
ATOM     14  C   UNL     1      16.434  -1.900  -0.158  0.00  0.00    +0.000 A 
ATOM     15  N   UNL     1      17.253  -0.828  -0.165  0.00  0.00    +0.000 N 
ATOM     16  N   UNL     1      16.465   0.328  -0.152  0.00  0.00    +0.000 NA
ATOM     17  C   UNL     1      18.717  -0.868  -0.179  0.00  0.00    +0.000 C 
ENDBRANCH   9  13
ENDBRANCH   1  10
BRANCH   4  18
ATOM     18  S   UNL     1       6.413  -1.805  -0.069  0.00  0.00    +0.000 S 
BRANCH  18  19
ATOM     19  C   UNL     1       5.686  -0.143  -0.053  0.00  0.00    +0.000 C 
BRANCH  19  20
ATOM     20  C   UNL     1       4.183  -0.253  -0.039  0.00  0.00    +0.000 C 
ATOM     21  O   UNL     1       3.655  -1.345  -0.040  0.00  0.00    +0.000 OA
ATOM     22  N   UNL     1       3.426   0.862  -0.026  0.00  0.00    +0.000 N 
ATOM     23  C   UNL     1       2.040   0.761  -0.013  0.00  0.00    +0.000 A 
ATOM     24  N   UNL     1       1.311  -0.393  -0.013  0.00  0.00    +0.000 NA
ATOM     25  C   UNL     1       0.002  -0.004   0.002  0.00  0.00    +0.000 A 
ATOM     26  N   UNL     1      -0.016   1.300   0.009  0.00  0.00    +0.000 NA
ATOM     27  N   UNL     1       1.186   1.756   0.000  0.00  0.00    +0.000 NA
ATOM     28  H   UNL     1       3.875   1.789  -0.025  0.00  0.00    +0.000 HD
ENDBRANCH  19  20
ENDBRANCH  18  19
ENDBRANCH   4  18
TORSDOF 5
ENDMDL
MODEL      946
REMARK  Name = ZINC00154059
REMARK  6 active torsions:
REMARK  status: ('A' for Active; 'I' for Inactive)
REMARK    1  A    between atoms: C_6  and  C_19
REMARK    2  A    between atoms: C_6  and  N_22
REMARK    3  A    between atoms: C_12  and  C_14
REMARK    4  A    between atoms: C_14  and  S_15
REMARK    5  A    between atoms: S_15  and  C_16
REMARK    6  A    between atoms: C_16  and  C_17
REMARK                            x       y       z     vdW  Elec       q    Type
REMARK                         _______ _______ _______ _____ _____    ______ ____
ROOT
ATOM      1  C   UNL     1       2.988  -0.550   2.225  0.00  0.00    +0.000 C 
ATOM      2  C   UNL     1       2.429  -0.092   3.575  0.00  0.00    +0.000 C 
ATOM      3  C   UNL     1       3.257  -0.715   4.703  0.00  0.00    +0.000 C 
ATOM      4  N   UNL     1       4.672  -0.382   4.491  0.00  0.00    +0.000 N 
ATOM      5  C   UNL     1       5.285  -0.697   3.194  0.00  0.00    +0.000 C 
ATOM      6  C   UNL     1       4.435  -0.074   2.082  0.00  0.00    +0.000 C 
ATOM      7  C   UNL     1       5.394   0.203   5.468  0.00  0.00    +0.000 C 
ATOM      8  O   UNL     1       6.561   0.473   5.281  0.00  0.00    +0.000 OA
ENDROOT
BRANCH   1  14
ATOM      9  C   UNL     1       0.027   1.545  -0.040  0.00  0.00    +0.000 C 
ATOM     10  C   UNL     1       1.475   2.042  -0.049  0.00  0.00    +0.000 C 
ATOM     11  C   UNL     1       2.208   1.487   1.174  0.00  0.00    +0.000 C 
ATOM     12  C   UNL     1       0.797  -0.483   1.197  0.00  0.00    +0.000 C 
ATOM     13  C   UNL     1       0.022   0.013  -0.025  0.00  0.00    +0.000 C 
ATOM     14  N   UNL     1       2.188   0.010   1.116  0.00  0.00    +0.000 N 
ATOM     15  H   UNL     1       2.598  -0.294   0.221  0.00  0.00    +0.000 HD
ENDBRANCH   1  14
BRANCH   1  16
ATOM     16  C   UNL     1       2.944  -2.054   2.149  0.00  0.00    +0.000 C 
ATOM     17  O   UNL     1       2.883  -2.712   3.166  0.00  0.00    +0.000 OA
ATOM     18  N   UNL     1       2.973  -2.669   0.950  0.00  0.00    +0.000 N 
ATOM     19  H   UNL     1       3.024  -2.111   0.086  0.00  0.00    +0.000 HD
ATOM     20  H   UNL     1       2.943  -3.697   0.898  0.00  0.00    +0.000 HD
ENDBRANCH   1  16
BRANCH   7  21
ATOM     21  C   UNL     1       4.750   0.520   6.794  0.00  0.00    +0.000 C 
BRANCH  21  22
ATOM     22  S   UNL     1       5.971   1.295   7.888  0.00  0.00    +0.000 S 
BRANCH  22  23
ATOM     23  C   UNL     1       5.051   1.609   9.420  0.00  0.00    +0.000 C 
BRANCH  23  24
ATOM     24  C   UNL     1       5.961   2.261  10.428  0.00  0.00    +0.000 C 
ATOM     25  O   UNL     1       7.113   2.490  10.144  0.00  0.00    +0.000 OA
ATOM     26  O   UNL     1       5.493   2.587  11.643  0.00  0.00    +0.000 OA
ENDBRANCH  23  24
ENDBRANCH  22  23
ENDBRANCH  21  22
ENDBRANCH   7  21
TORSDOF 6
ENDMDL
MODEL      947
REMARK  Name = ZINC10904963
REMARK  7 active torsions:
REMARK  status: ('A' for Active; 'I' for Inactive)
REMARK    1  A    between atoms: C_4  and  S_8
REMARK    2  A    between atoms: S_8  and  N_11
REMARK    3  A    between atoms: N_11  and  C_12
REMARK    4  A    between atoms: C_12  and  C_13
REMARK    5  A    between atoms: C_13  and  O_15
REMARK    6  A    between atoms: O_15  and  C_16
REMARK    7  A    between atoms: C_16  and  C_17
REMARK                            x       y       z     vdW  Elec       q    Type
REMARK                         _______ _______ _______ _____ _____    ______ ____
ROOT
ATOM      1  C   UNL     1       3.418   2.119  -2.460  0.00  0.00    +0.000 C 
ENDROOT
BRANCH   1   2
ATOM      2  C   UNL     1       4.109   1.650  -3.714  0.00  0.00    +0.000 C 
ATOM      3  O   UNL     1       4.332   0.474  -3.877  0.00  0.00    +0.000 OA
BRANCH   2   4
ATOM      4  O   UNL     1       4.476   2.539  -4.650  0.00  0.00    +0.000 OA
BRANCH   4   5
ATOM      5  C   UNL     1       5.137   2.017  -5.833  0.00  0.00    +0.000 C 
BRANCH   5   6
ATOM      6  C   UNL     1       5.472   3.153  -6.764  0.00  0.00    +0.000 C 
ATOM      7  O   UNL     1       5.183   4.290  -6.462  0.00  0.00    +0.000 OA
ATOM      8  N   UNL     1       6.094   2.904  -7.934  0.00  0.00    +0.000 N 
ATOM      9  C   UNL     1       6.393   3.920  -8.767  0.00  0.00    +0.000 C 
ATOM     10  O   UNL     1       6.103   5.061  -8.464  0.00  0.00    +0.000 OA
ATOM     11  N   UNL     1       7.015   3.671  -9.937  0.00  0.00    +0.000 N 
ATOM     12  H   UNL     1       6.340   1.937  -8.191  0.00  0.00    +0.000 HD
ATOM     13  H   UNL     1       7.261   2.705 -10.194  0.00  0.00    +0.000 HD
ATOM     14  H   UNL     1       7.244   4.448 -10.574  0.00  0.00    +0.000 HD
ENDBRANCH   5   6
ENDBRANCH   4   5
ENDBRANCH   2   4
ENDBRANCH   1   2
BRANCH   1  15
ATOM     15  N   UNL     1       3.123   0.966  -1.605  0.00  0.00    +0.000 NA
BRANCH  15  16
ATOM     16  S   UNL     1       2.711   1.196  -0.017  0.00  0.00    +0.000 S 
ATOM     17  O   UNL     1       3.678   2.083   0.529  0.00  0.00    +0.000 OA
ATOM     18  O   UNL     1       2.464  -0.092   0.529  0.00  0.00    +0.000 OA
BRANCH  16  22
ATOM     19  C   UNL     1      -1.244   3.405   0.031  0.00  0.00    +0.000 A 
ATOM     20  C   UNL     1      -0.057   4.114   0.024  0.00  0.00    +0.000 A 
ATOM     21  C   UNL     1       1.153   3.439   0.009  0.00  0.00    +0.000 A 
ATOM     22  C   UNL     1       1.173   2.055   0.002  0.00  0.00    +0.000 A 
ATOM     23  C   UNL     1      -0.016   1.347   0.009  0.00  0.00    +0.000 A 
ATOM     24  C   UNL     1      -1.225   2.023   0.019  0.00  0.00    +0.000 A 
ATOM     25  F   UNL     1       0.002  -0.004   0.002  0.00  0.00    +0.000 F 
ATOM     26  F   UNL     1       2.312   4.132   0.001  0.00  0.00    +0.000 F 
ENDBRANCH  16  22
ENDBRANCH  15  16
ENDBRANCH   1  15
TORSDOF 7
ENDMDL
MODEL      948
REMARK  Name = ZINC29433719
REMARK  8 active torsions:
REMARK  status: ('A' for Active; 'I' for Inactive)
REMARK    1  A    between atoms: C_5  and  S_7
REMARK    2  A    between atoms: S_7  and  N_10
REMARK    3  A    between atoms: N_10  and  C_11
REMARK    4  A    between atoms: C_13  and  N_21
REMARK    5  A    between atoms: C_16  and  N_17
REMARK    6  A    between atoms: N_17  and  C_18
REMARK    7  A    between atoms: C_18  and  C_19
REMARK    8  A    between atoms: C_19  and  O_20
REMARK                            x       y       z     vdW  Elec       q    Type
REMARK                         _______ _______ _______ _____ _____    ______ ____
ROOT
ATOM      1  C   UNL     1      -3.771   1.986   0.200  0.00  0.00    +0.000 A 
ATOM      2  C   UNL     1      -2.514   1.403   0.265  0.00  0.00    +0.000 A 
ATOM      3  C   UNL     1      -1.393   2.196   0.431  0.00  0.00    +0.000 A 
ATOM      4  C   UNL     1      -1.521   3.568   0.538  0.00  0.00    +0.000 A 
ATOM      5  C   UNL     1      -2.770   4.157   0.469  0.00  0.00    +0.000 A 
ATOM      6  C   UNL     1      -3.900   3.370   0.303  0.00  0.00    +0.000 A 
ENDROOT
BRANCH   3   7
ATOM      7  N   UNL     1      -0.052   1.572   0.500  0.00  0.00    +0.000 N 
ATOM      8  O   UNL     1       0.062   0.363   0.410  0.00  0.00    +0.000 OA
ATOM      9  O   UNL     1       0.937   2.269   0.641  0.00  0.00    +0.000 OA
ENDBRANCH   3   7
BRANCH   6  10
ATOM     10  N   UNL     1      -5.166   3.965   0.238  0.00  0.00    +0.000 N 
ATOM     11  H   UNL     1      -6.004   3.379   0.114  0.00  0.00    +0.000 HD
BRANCH  10  12
ATOM     12  C   UNL     1      -5.299   5.420   0.346  0.00  0.00    +0.000 C 
BRANCH  12  13
ATOM     13  C   UNL     1      -6.776   5.806   0.245  0.00  0.00    +0.000 C 
BRANCH  13  14
ATOM     14  O   UNL     1      -7.484   5.277   1.367  0.00  0.00    +0.000 OA
ATOM     15  H   UNL     1      -7.104   5.646   2.203  0.00  0.00    +0.000 HD
ENDBRANCH  13  14
ENDBRANCH  12  13
ENDBRANCH  10  12
ENDBRANCH   6  10
BRANCH   1  16
ATOM     16  N   UNL     1      -4.907   1.185   0.031  0.00  0.00    +0.000 NA
BRANCH  16  17
ATOM     17  S   UNL     1      -4.980  -0.310   0.740  0.00  0.00    +0.000 S 
ATOM     18  O   UNL     1      -6.288  -0.810   0.500  0.00  0.00    +0.000 OA
ATOM     19  O   UNL     1      -3.811  -1.008   0.335  0.00  0.00    +0.000 OA
BRANCH  17  24
ATOM     20  C   UNL     1      -5.878   0.311   4.607  0.00  0.00    +0.000 A 
ATOM     21  C   UNL     1      -4.635   0.311   5.212  0.00  0.00    +0.000 A 
ATOM     22  C   UNL     1      -3.495   0.121   4.451  0.00  0.00    +0.000 A 
ATOM     23  C   UNL     1      -3.601  -0.075   3.084  0.00  0.00    +0.000 A 
ATOM     24  C   UNL     1      -4.844  -0.068   2.480  0.00  0.00    +0.000 A 
ATOM     25  C   UNL     1      -5.982   0.122   3.242  0.00  0.00    +0.000 A 
ATOM     26  F   UNL     1      -2.280   0.120   5.041  0.00  0.00    +0.000 F 
ENDBRANCH  17  24
ENDBRANCH  16  17
ENDBRANCH   1  16
TORSDOF 8
ENDMDL
MODEL      949
REMARK  Name = ZINC14116594
REMARK  8 active torsions:
REMARK  status: ('A' for Active; 'I' for Inactive)
REMARK    1  A    between atoms: C_1  and  C_2
REMARK    2  A    between atoms: C_2  and  C_3
REMARK    3  A    between atoms: C_5  and  S_8
REMARK    4  A    between atoms: S_8  and  C_9
REMARK    5  A    between atoms: C_9  and  C_10
REMARK    6  A    between atoms: N_12  and  N_13
REMARK    7  A    between atoms: C_14  and  C_16
REMARK    8  A    between atoms: C_16  and  C_17
REMARK                            x       y       z     vdW  Elec       q    Type
REMARK                         _______ _______ _______ _____ _____    ______ ____
ROOT
ATOM      1  C   UNL     1      -3.677   2.764   6.611  0.00  0.00    +0.000 C 
ATOM      2  O   UNL     1      -3.833   1.674   7.119  0.00  0.00    +0.000 OA
ATOM      3  N   UNL     1      -4.124   3.870   7.239  0.00  0.00    +0.000 N 
ATOM      4  H   UNL     1      -3.992   4.796   6.808  0.00  0.00    +0.000 HD
ENDROOT
BRANCH   3   5
ATOM      5  N   UNL     1      -4.768   3.760   8.479  0.00  0.00    +0.000 N 
ATOM      6  C   UNL     1      -5.214   4.866   9.107  0.00  0.00    +0.000 C 
ATOM      7  O   UNL     1      -5.059   5.956   8.599  0.00  0.00    +0.000 OA
ATOM      8  H   UNL     1      -4.900   2.834   8.910  0.00  0.00    +0.000 HD
BRANCH   6   9
ATOM      9  C   UNL     1      -5.907   4.747  10.440  0.00  0.00    +0.000 C 
BRANCH   9  10
ATOM     10  C   UNL     1      -6.311   6.139  10.930  0.00  0.00    +0.000 C 
ATOM     11  C   UNL     1      -5.051   6.969  11.234  0.00  0.00    +0.000 C 
ATOM     12  C   UNL     1      -5.436   8.243  12.023  0.00  0.00    +0.000 C 
ATOM     13  S   UNL     1      -6.957   7.720  12.917  0.00  0.00    +0.000 S 
ATOM     14  O   UNL     1      -8.050   8.511  12.471  0.00  0.00    +0.000 OA
ATOM     15  O   UNL     1      -6.673   7.641  14.307  0.00  0.00    +0.000 OA
ATOM     16  C   UNL     1      -7.136   6.015  12.243  0.00  0.00    +0.000 C 
ENDBRANCH   9  10
ENDBRANCH   6   9
ENDBRANCH   3   5
BRANCH   1  17
ATOM     17  C   UNL     1      -2.985   2.883   5.278  0.00  0.00    +0.000 C 
BRANCH  17  18
ATOM     18  S   UNL     1      -2.507   1.236   4.698  0.00  0.00    +0.000 S 
BRANCH  18  21
ATOM     19  C   UNL     1      -0.718   1.572   1.248  0.00  0.00    +0.000 A 
ATOM     20  N   UNL     1      -1.185   0.795   2.272  0.00  0.00    +0.000 N 
ATOM     21  C   UNL     1      -1.743   1.661   3.168  0.00  0.00    +0.000 A 
ATOM     22  N   UNL     1      -1.607   2.868   2.672  0.00  0.00    +0.000 NA
ATOM     23  N   UNL     1      -1.002   2.810   1.540  0.00  0.00    +0.000 NA
ATOM     24  H   UNL     1      -1.127  -0.231   2.351  0.00  0.00    +0.000 HD
BRANCH  19  26
ATOM     25  C   UNL     1      -0.753   1.593  -1.232  0.00  0.00    +0.000 C 
ATOM     26  C   UNL     1      -0.013   1.086   0.008  0.00  0.00    +0.000 C 
ENDBRANCH  19  26
ENDBRANCH  18  21
ENDBRANCH  17  18
ENDBRANCH   1  17
TORSDOF 7
ENDMDL
MODEL      950
REMARK  Name = ZINC31543379
REMARK  16 active torsions:
REMARK  status: ('A' for Active; 'I' for Inactive)
REMARK    1  A    between atoms: C_1  and  C_2
REMARK    2  A    between atoms: C_1  and  O_23
REMARK    3  A    between atoms: C_3  and  O_22
REMARK    4  A    between atoms: C_4  and  O_21
REMARK    5  A    between atoms: C_5  and  O_20
REMARK    6  A    between atoms: C_6  and  S_8
REMARK    7  A    between atoms: S_8  and  C_9
REMARK    8  A    between atoms: C_9  and  C_10
REMARK    9  A    between atoms: C_9  and  C_14
REMARK   10  A    between atoms: C_10  and  C_11
REMARK   11  A    between atoms: C_10  and  O_13
REMARK   12  A    between atoms: C_11  and  O_12
REMARK   13  A    between atoms: C_14  and  C_15
REMARK   14  A    between atoms: C_14  and  O_19
REMARK   15  A    between atoms: C_15  and  C_16
REMARK   16  A    between atoms: C_15  and  O_18
REMARK                            x       y       z     vdW  Elec       q    Type
REMARK                         _______ _______ _______ _____ _____    ______ ____
ROOT
ATOM      1  S   UNL     1       0.645   1.642   2.403  0.00  0.00    +0.000 S 
ENDROOT
BRANCH   1   6
ATOM      2  C   UNL     1       1.834   5.423   2.875  0.00  0.00    +0.000 C 
ATOM      3  C   UNL     1       0.677   5.997   3.698  0.00  0.00    +0.000 C 
ATOM      4  C   UNL     1      -0.648   5.479   3.131  0.00  0.00    +0.000 C 
ATOM      5  C   UNL     1      -0.631   3.947   3.140  0.00  0.00    +0.000 C 
ATOM      6  C   UNL     1       0.576   3.453   2.338  0.00  0.00    +0.000 C 
ATOM      7  O   UNL     1       1.773   3.996   2.900  0.00  0.00    +0.000 OA
BRANCH   3   8
ATOM      8  O   UNL     1       0.702   7.424   3.627  0.00  0.00    +0.000 OA
ATOM      9  H   UNL     1       0.609   7.710   2.684  0.00  0.00    +0.000 HD
ENDBRANCH   3   8
BRANCH   4  10
ATOM     10  O   UNL     1      -1.729   5.950   3.938  0.00  0.00    +0.000 OA
ATOM     11  H   UNL     1      -1.735   6.940   3.937  0.00  0.00    +0.000 HD
ENDBRANCH   4  10
BRANCH   5  12
ATOM     12  O   UNL     1      -1.833   3.453   2.546  0.00  0.00    +0.000 OA
ATOM     13  H   UNL     1      -1.898   3.776   1.613  0.00  0.00    +0.000 HD
ENDBRANCH   5  12
BRANCH   2  14
ATOM     14  C   UNL     1       3.164   5.888   3.472  0.00  0.00    +0.000 C 
BRANCH  14  15
ATOM     15  O   UNL     1       4.239   5.450   2.638  0.00  0.00    +0.000 OA
ATOM     16  H   UNL     1       4.133   5.835   1.732  0.00  0.00    +0.000 HD
ENDBRANCH  14  15
ENDBRANCH   2  14
ENDBRANCH   1   6
BRANCH   1  17
ATOM     17  C   UNL     1       2.017   1.215   1.297  0.00  0.00    +0.000 C 
BRANCH  17  18
ATOM     18  C   UNL     1       1.663   1.619  -0.136  0.00  0.00    +0.000 C 
BRANCH  18  19
ATOM     19  O   UNL     1       0.503   0.900  -0.560  0.00  0.00    +0.000 OA
ATOM     20  H   UNL     1      -0.256   1.112   0.039  0.00  0.00    +0.000 HD
ENDBRANCH  18  19
BRANCH  18  21
ATOM     21  C   UNL     1       2.834   1.291  -1.063  0.00  0.00    +0.000 C 
BRANCH  21  22
ATOM     22  O   UNL     1       2.551   1.774  -2.378  0.00  0.00    +0.000 OA
ATOM     23  H   UNL     1       2.418   2.754  -2.349  0.00  0.00    +0.000 HD
ENDBRANCH  21  22
ENDBRANCH  18  21
ENDBRANCH  17  18
BRANCH  17  24
ATOM     24  C   UNL     1       2.268  -0.293   1.354  0.00  0.00    +0.000 C 
BRANCH  24  25
ATOM     25  O   UNL     1       1.051  -0.989   1.078  0.00  0.00    +0.000 OA
ATOM     26  H   UNL     1       0.726  -0.743   0.176  0.00  0.00    +0.000 HD
ENDBRANCH  24  25
BRANCH  24  27
ATOM     27  C   UNL     1       2.769  -0.675   2.748  0.00  0.00    +0.000 C 
BRANCH  27  28
ATOM     28  O   UNL     1       1.840  -0.214   3.731  0.00  0.00    +0.000 OA
ATOM     29  H   UNL     1       0.956  -0.632   3.572  0.00  0.00    +0.000 HD
ENDBRANCH  27  28
BRANCH  27  30
ATOM     30  C   UNL     1       2.899  -2.173   2.843  0.00  0.00    +0.000 C 
ATOM     31  O   UNL     1       2.262  -2.784   3.667  0.00  0.00    +0.000 OA
ENDBRANCH  27  30
ENDBRANCH  24  27
ENDBRANCH  17  24
ENDBRANCH   1  17
TORSDOF 16
ENDMDL
MODEL      951
REMARK  Name = ZINC05212473
REMARK  6 active torsions:
REMARK  status: ('A' for Active; 'I' for Inactive)
REMARK    1  A    between atoms: C_1  and  C_2
REMARK    2  A    between atoms: C_5  and  N_8
REMARK    3  A    between atoms: C_9  and  C_10
REMARK    4  A    between atoms: C_10  and  N_11
REMARK    5  A    between atoms: N_14  and  N_15
REMARK    6  A    between atoms: N_15  and  C_16
REMARK                            x       y       z     vdW  Elec       q    Type
REMARK                         _______ _______ _______ _____ _____    ______ ____
ROOT
ATOM      1  N   UNL     1      -0.246   3.187   1.836  0.00  0.00    +0.000 N 
ATOM      2  C   UNL     1      -1.343   2.847   1.222  0.00  0.00    +0.000 C 
ATOM      3  N   UNL     1      -2.555   3.246   1.716  0.00  0.00    +0.000 N 
ATOM      4  H   UNL     1       0.659   2.810   1.521  0.00  0.00    +0.000 HD
ATOM      5  H   UNL     1      -2.599   3.819   2.571  0.00  0.00    +0.000 HD
ENDROOT
BRANCH   1  10
ATOM      6  C   UNL     1      -0.451   6.735   6.226  0.00  0.00    +0.000 C 
ATOM      7  C   UNL     1      -0.396   5.788   5.055  0.00  0.00    +0.000 A 
ATOM      8  C   UNL     1       0.200   4.548   5.199  0.00  0.00    +0.000 A 
ATOM      9  C   UNL     1       0.253   3.677   4.130  0.00  0.00    +0.000 A 
ATOM     10  C   UNL     1      -0.295   4.049   2.902  0.00  0.00    +0.000 A 
ATOM     11  C   UNL     1      -0.890   5.304   2.762  0.00  0.00    +0.000 A 
ATOM     12  C   UNL     1      -0.942   6.164   3.840  0.00  0.00    +0.000 A 
ENDBRANCH   1  10
BRANCH   3  13
ATOM     13  N   UNL     1      -3.735   2.875   1.059  0.00  0.00    +0.000 N 
ATOM     14  H   UNL     1      -3.696   2.238   0.250  0.00  0.00    +0.000 HD
BRANCH  13  15
ATOM     15  C   UNL     1      -4.948   3.362   1.494  0.00  0.00    +0.000 C 
ATOM     16  C   UNL     1      -6.072   3.088   0.802  0.00  0.00    +0.000 C 
ATOM     17  C   UNL     1      -7.408   3.622   1.088  0.00  0.00    +0.000 A 
ATOM     18  C   UNL     1      -7.926   4.489   2.049  0.00  0.00    +0.000 A 
ATOM     19  C   UNL     1      -9.269   4.795   2.038  0.00  0.00    +0.000 A 
ATOM     20  C   UNL     1     -10.112   4.249   1.080  0.00  0.00    +0.000 A 
ATOM     21  C   UNL     1      -9.622   3.390   0.121  0.00  0.00    +0.000 A 
ATOM     22  C   UNL     1      -8.266   3.066   0.112  0.00  0.00    +0.000 A 
ATOM     23  C   UNL     1      -7.423   2.214  -0.732  0.00  0.00    +0.000 C 
ATOM     24  O   UNL     1      -7.804   1.563  -1.687  0.00  0.00    +0.000 OA
ATOM     25  O   UNL     1      -6.160   2.275  -0.281  0.00  0.00    +0.000 OA
ENDBRANCH  13  15
ENDBRANCH   3  13
BRANCH   2  26
ATOM     26  C   UNL     1      -1.277   2.013  -0.031  0.00  0.00    +0.000 C 
BRANCH  26  27
ATOM     27  N   UNL     1       0.122   1.719  -0.349  0.00  0.00    +0.000 N 
ATOM     28  O   UNL     1       0.449   0.591  -0.671  0.00  0.00    +0.000 OA
ATOM     29  O   UNL     1       0.958   2.603  -0.297  0.00  0.00    +0.000 OA
ENDBRANCH  26  27
ENDBRANCH   2  26
TORSDOF 5
ENDMDL
MODEL      952
REMARK  Name = ZINC24983928
REMARK  8 active torsions:
REMARK  status: ('A' for Active; 'I' for Inactive)
REMARK    1  A    between atoms: C_1  and  N_2
REMARK    2  A    between atoms: N_2  and  S_3
REMARK    3  A    between atoms: S_3  and  C_6
REMARK    4  A    between atoms: C_9  and  C_11
REMARK    5  A    between atoms: N_13  and  C_14
REMARK    6  A    between atoms: C_14  and  C_15
REMARK    7  A    between atoms: C_15  and  N_16
REMARK    8  A    between atoms: C_20  and  C_23
REMARK                            x       y       z     vdW  Elec       q    Type
REMARK                         _______ _______ _______ _____ _____    ______ ____
ROOT
ATOM      1  C   UNL     1       1.835   9.958   0.033  0.00  0.00    +0.000 C 
ATOM      2  O   UNL     1       0.752  10.512   0.046  0.00  0.00    +0.000 OA
ATOM      3  N   UNL     1       1.904   8.612   0.026  0.00  0.00    +0.000 N 
ATOM      4  H   UNL     1       2.821   8.143   0.015  0.00  0.00    +0.000 HD
ENDROOT
BRANCH   1   8
ATOM      5  C   UNL     1       5.194  11.288   0.006  0.00  0.00    +0.000 A 
ATOM      6  C   UNL     1       4.503  12.450   0.018  0.00  0.00    +0.000 A 
ATOM      7  C   UNL     1       3.139  12.119   0.025  0.00  0.00    +0.000 A 
ATOM      8  C   UNL     1       3.066  10.755   0.025  0.00  0.00    +0.000 A 
ATOM      9  O   UNL     1       4.325  10.270   0.011  0.00  0.00    +0.000 OA
BRANCH   5  10
ATOM     10  S   UNL     1       6.950  11.139  -0.012  0.00  0.00    +0.000 S 
ATOM     11  O   UNL     1       7.243   9.866  -0.572  0.00  0.00    +0.000 OA
ATOM     12  O   UNL     1       7.455  12.348  -0.562  0.00  0.00    +0.000 OA
BRANCH  10  14
ATOM     13  C   UNL     1       7.070   9.965   2.422  0.00  0.00    +0.000 C 
ATOM     14  N   UNL     1       7.453  11.090   1.565  0.00  0.00    +0.000 NA
ATOM     15  H   UNL     1       8.036  11.850   1.943  0.00  0.00    +0.000 HD
ENDBRANCH  10  14
ENDBRANCH   5  10
ENDBRANCH   1   8
BRANCH   3  16
ATOM     16  C   UNL     1       0.674   7.816   0.034  0.00  0.00    +0.000 C 
BRANCH  16  17
ATOM     17  C   UNL     1       1.030   6.328   0.024  0.00  0.00    +0.000 C 
BRANCH  17  18
ATOM     18  N   UNL     1      -0.200   5.532   0.032  0.00  0.00    +0.000 N 
ATOM     19  C   UNL     1      -0.130   4.148   0.025  0.00  0.00    +0.000 A 
ATOM     20  C   UNL     1       1.116   3.523   0.010  0.00  0.00    +0.000 A 
ATOM     21  C   UNL     1       1.182   2.156   0.002  0.00  0.00    +0.000 A 
ATOM     22  C   UNL     1      -0.017   1.428   0.010  0.00  0.00    +0.000 A 
ATOM     23  C   UNL     1      -1.230   2.119   0.019  0.00  0.00    +0.000 A 
ATOM     24  N   UNL     1      -1.248   3.436   0.032  0.00  0.00    +0.000 NA
ATOM     25  H   UNL     1      -1.117   6.001   0.043  0.00  0.00    +0.000 HD
BRANCH  22  26
ATOM     26  C   UNL     1       0.002  -0.004   0.002  0.00  0.00    +0.000 C 
ATOM     27  N   UNL     1       0.018  -1.140  -0.004  0.00  0.00    +0.000 NA
ENDBRANCH  22  26
ENDBRANCH  17  18
ENDBRANCH  16  17
ENDBRANCH   3  16
TORSDOF 7
ENDMDL
MODEL      953
REMARK  Name = ZINC29530525
REMARK  8 active torsions:
REMARK  status: ('A' for Active; 'I' for Inactive)
REMARK    1  A    between atoms: C_1  and  S_2
REMARK    2  A    between atoms: S_2  and  N_5
REMARK    3  A    between atoms: N_5  and  C_6
REMARK    4  A    between atoms: C_6  and  C_7
REMARK    5  A    between atoms: C_7  and  C_8
REMARK    6  A    between atoms: C_8  and  N_9
REMARK    7  A    between atoms: N_9  and  C_10
REMARK    8  A    between atoms: C_15  and  N_16
REMARK                            x       y       z     vdW  Elec       q    Type
REMARK                         _______ _______ _______ _____ _____    ______ ____
ROOT
ATOM      1  C   UNL     1       0.813  -1.842  -1.441  0.00  0.00    +0.000 A 
ATOM      2  C   UNL     1       0.398  -2.747  -0.477  0.00  0.00    +0.000 A 
ATOM      3  C   UNL     1       0.562  -4.112  -0.702  0.00  0.00    +0.000 A 
ATOM      4  C   UNL     1       1.150  -4.550  -1.911  0.00  0.00    +0.000 A 
ATOM      5  C   UNL     1       1.560  -3.621  -2.868  0.00  0.00    +0.000 A 
ATOM      6  C   UNL     1       1.387  -2.287  -2.634  0.00  0.00    +0.000 A 
ATOM      7  C   UNL     1       1.309  -5.995  -2.117  0.00  0.00    +0.000 A 
ATOM      8  O   UNL     1       1.808  -6.437  -3.135  0.00  0.00    +0.000 OA
ATOM      9  N   UNL     1       0.880  -6.816  -1.130  0.00  0.00    +0.000 NA
ATOM     10  C   UNL     1       0.326  -6.308   0.002  0.00  0.00    +0.000 A 
ATOM     11  N   UNL     1       0.172  -5.036   0.213  0.00  0.00    +0.000 N 
ATOM     12  H   UNL     1      -0.257  -4.721   1.095  0.00  0.00    +0.000 HD
ENDROOT
BRANCH   6  13
ATOM     13  N   UNL     1       1.816  -1.302  -3.652  0.00  0.00    +0.000 N 
ATOM     14  O   UNL     1       2.216  -1.683  -4.737  0.00  0.00    +0.000 OA
ATOM     15  O   UNL     1       1.770  -0.110  -3.404  0.00  0.00    +0.000 OA
ENDBRANCH   6  13
BRANCH   1  16
ATOM     16  N   UNL     1       0.651  -0.478  -1.220  0.00  0.00    +0.000 N 
ATOM     17  H   UNL     1       1.037   0.202  -1.891  0.00  0.00    +0.000 HD
BRANCH  16  18
ATOM     18  C   UNL     1      -0.070  -0.008  -0.034  0.00  0.00    +0.000 C 
BRANCH  18  19
ATOM     19  C   UNL     1      -0.105   1.522  -0.032  0.00  0.00    +0.000 C 
BRANCH  19  20
ATOM     20  C   UNL     1      -0.857   2.012   1.207  0.00  0.00    +0.000 C 
BRANCH  20  21
ATOM     21  N   UNL     1      -0.891   3.477   1.209  0.00  0.00    +0.000 NA
ATOM     22  H   UNL     1      -0.263   4.008   0.589  0.00  0.00    +0.000 HD
BRANCH  21  24
ATOM     23  C   UNL     1      -1.380   3.881   3.888  0.00  0.00    +0.000 C 
ATOM     24  S   UNL     1      -1.940   4.279   2.209  0.00  0.00    +0.000 S 
ATOM     25  O   UNL     1      -1.721   5.656   1.934  0.00  0.00    +0.000 OA
ATOM     26  O   UNL     1      -3.205   3.683   1.960  0.00  0.00    +0.000 OA
ENDBRANCH  21  24
ENDBRANCH  20  21
ENDBRANCH  19  20
ENDBRANCH  18  19
ENDBRANCH  16  18
ENDBRANCH   1  16
TORSDOF 7
ENDMDL
MODEL      954
REMARK  Name = ZINC00056046
REMARK  9 active torsions:
REMARK  status: ('A' for Active; 'I' for Inactive)
REMARK    1  A    between atoms: C_1  and  O_2
REMARK    2  A    between atoms: O_2  and  C_3
REMARK    3  A    between atoms: C_7  and  C_11
REMARK    4  A    between atoms: C_8  and  O_9
REMARK    5  A    between atoms: O_9  and  C_10
REMARK    6  A    between atoms: N_12  and  N_13
REMARK    7  A    between atoms: C_14  and  C_16
REMARK    8  A    between atoms: C_16  and  C_17
REMARK    9  A    between atoms: C_17  and  C_18
REMARK                            x       y       z     vdW  Elec       q    Type
REMARK                         _______ _______ _______ _____ _____    ______ ____
ROOT
ATOM      1  N   UNL     1       1.139   2.192   0.003  0.00  0.00    +0.000 N 
ATOM      2  C   UNL     1      -0.018   1.503   0.010  0.00  0.00    +0.000 C 
ATOM      3  O   UNL     1      -1.077   2.095   0.018  0.00  0.00    +0.000 OA
ATOM      4  H   UNL     1       2.038   1.690  -0.008  0.00  0.00    +0.000 HD
ENDROOT
BRANCH   1   6
ATOM      5  C   UNL     1       2.236   4.258   0.004  0.00  0.00    +0.000 C 
ATOM      6  N   UNL     1       1.121   3.593   0.011  0.00  0.00    +0.000 NA
BRANCH   5  11
ATOM      7  C   UNL     1       0.988   7.808   0.033  0.00  0.00    +0.000 A 
ATOM      8  C   UNL     1       2.185   8.507   0.025  0.00  0.00    +0.000 A 
ATOM      9  C   UNL     1       3.391   7.829   0.011  0.00  0.00    +0.000 A 
ATOM     10  C   UNL     1       3.414   6.450   0.004  0.00  0.00    +0.000 A 
ATOM     11  C   UNL     1       2.216   5.731   0.012  0.00  0.00    +0.000 A 
ATOM     12  C   UNL     1       0.996   6.418   0.021  0.00  0.00    +0.000 A 
BRANCH  12  13
ATOM     13  O   UNL     1      -0.176   5.729   0.023  0.00  0.00    +0.000 OA
ATOM     14  C   UNL     1      -0.729   5.394   1.297  0.00  0.00    +0.000 C 
ENDBRANCH  12  13
BRANCH   7  16
ATOM     15  C   UNL     1      -0.126   9.909   0.052  0.00  0.00    +0.000 C 
ATOM     16  O   UNL     1      -0.193   8.481   0.047  0.00  0.00    +0.000 OA
ENDBRANCH   7  16
ENDBRANCH   5  11
ENDBRANCH   1   6
BRANCH   2  17
ATOM     17  C   UNL     1       0.002  -0.004   0.002  0.00  0.00    +0.000 C 
BRANCH  17  18
ATOM     18  C   UNL     1      -1.433  -0.534   0.013  0.00  0.00    +0.000 C 
BRANCH  18  19
ATOM     19  C   UNL     1      -1.413  -2.041   0.005  0.00  0.00    +0.000 A 
ATOM     20  C   UNL     1      -2.666  -2.801   0.013  0.00  0.00    +0.000 A 
ATOM     21  O   UNL     1      -3.737  -2.223   0.026  0.00  0.00    +0.000 OA
ATOM     22  N   UNL     1      -2.617  -4.149   0.004  0.00  0.00    +0.000 N 
ATOM     23  C   UNL     1      -1.428  -4.780  -0.011  0.00  0.00    +0.000 A 
ATOM     24  O   UNL     1      -1.395  -5.995  -0.018  0.00  0.00    +0.000 OA
ATOM     25  N   UNL     1      -0.276  -4.086  -0.018  0.00  0.00    +0.000 N 
ATOM     26  N   UNL     1      -0.280  -2.686  -0.015  0.00  0.00    +0.000 NA
ATOM     27  H   UNL     1      -3.490  -4.696   0.009  0.00  0.00    +0.000 HD
ATOM     28  H   UNL     1       0.622  -4.592  -0.025  0.00  0.00    +0.000 HD
ENDBRANCH  18  19
ENDBRANCH  17  18
ENDBRANCH   2  17
TORSDOF 7
ENDMDL
MODEL      955
REMARK  Name = ZINC27469748
REMARK  7 active torsions:
REMARK  status: ('A' for Active; 'I' for Inactive)
REMARK    1  A    between atoms: C_5  and  C_6
REMARK    2  A    between atoms: N_11  and  C_14
REMARK    3  A    between atoms: C_14  and  C_15
REMARK    4  A    between atoms: C_15  and  S_16
REMARK    5  A    between atoms: S_16  and  C_19
REMARK    6  A    between atoms: C_19  and  C_20
REMARK    7  A    between atoms: C_20  and  C_21
REMARK                            x       y       z     vdW  Elec       q    Type
REMARK                         _______ _______ _______ _____ _____    ______ ____
ROOT
ATOM      1  C   UNL     1      -0.520   3.859  -2.144  0.00  0.00    +0.000 C 
ATOM      2  O   UNL     1       0.022   3.388  -3.125  0.00  0.00    +0.000 OA
ATOM      3  N   UNL     1      -0.893   3.055  -1.129  0.00  0.00    +0.000 N 
ATOM      4  C   UNL     1      -0.784   1.592  -1.244  0.00  0.00    +0.000 C 
ATOM      5  C   UNL     1      -0.033   1.062  -0.018  0.00  0.00    +0.000 C 
ATOM      6  N   UNL     1      -0.695   1.540   1.203  0.00  0.00    +0.000 NA
ATOM      7  C   UNL     1      -0.646   3.006   1.296  0.00  0.00    +0.000 C 
ATOM      8  C   UNL     1      -1.422   3.616   0.124  0.00  0.00    +0.000 C 
ENDROOT
BRANCH   1  13
ATOM      9  C   UNL     1      -1.803   5.992  -1.274  0.00  0.00    +0.000 A 
ATOM     10  C   UNL     1      -1.646   7.303  -1.514  0.00  0.00    +0.000 A 
ATOM     11  O   UNL     1      -0.624   7.474  -2.367  0.00  0.00    +0.000 OA
ATOM     12  C   UNL     1      -0.082   6.300  -2.704  0.00  0.00    +0.000 A 
ATOM     13  C   UNL     1      -0.768   5.309  -2.064  0.00  0.00    +0.000 A 
ENDBRANCH   1  13
BRANCH   6  14
ATOM     14  C   UNL     1      -0.111   0.916   2.397  0.00  0.00    +0.000 C 
BRANCH  14  15
ATOM     15  C   UNL     1      -0.644   1.614   3.650  0.00  0.00    +0.000 C 
BRANCH  15  16
ATOM     16  S   UNL     1       0.077   0.843   5.125  0.00  0.00    +0.000 S 
ATOM     17  O   UNL     1      -0.391  -0.496   5.207  0.00  0.00    +0.000 OA
ATOM     18  O   UNL     1       1.477   1.088   5.121  0.00  0.00    +0.000 OA
BRANCH  16  19
ATOM     19  C   UNL     1      -0.667   1.795   6.479  0.00  0.00    +0.000 C 
BRANCH  19  20
ATOM     20  C   UNL     1      -0.154   1.262   7.818  0.00  0.00    +0.000 C 
BRANCH  20  21
ATOM     21  C   UNL     1      -0.772   2.053   8.943  0.00  0.00    +0.000 C 
ATOM     22  O   UNL     1      -1.547   2.953   8.697  0.00  0.00    +0.000 OA
ATOM     23  N   UNL     1      -0.464   1.759  10.222  0.00  0.00    +0.000 N 
ATOM     24  H   UNL     1       0.194   0.994  10.430  0.00  0.00    +0.000 HD
ATOM     25  H   UNL     1      -0.887   2.299  10.990  0.00  0.00    +0.000 HD
ENDBRANCH  20  21
ENDBRANCH  19  20
ENDBRANCH  16  19
ENDBRANCH  15  16
ENDBRANCH  14  15
ENDBRANCH   6  14
TORSDOF 7
ENDMDL
MODEL      956
REMARK  Name = ZINC30809988
REMARK  7 active torsions:
REMARK  status: ('A' for Active; 'I' for Inactive)
REMARK    1  A    between atoms: C_1  and  O_2
REMARK    2  A    between atoms: O_2  and  C_3
REMARK    3  A    between atoms: C_6  and  C_13
REMARK    4  A    between atoms: C_13  and  O_15
REMARK    5  A    between atoms: O_15  and  C_16
REMARK    6  A    between atoms: C_16  and  C_17
REMARK    7  A    between atoms: C_17  and  N_18
REMARK                            x       y       z     vdW  Elec       q    Type
REMARK                         _______ _______ _______ _____ _____    ______ ____
ROOT
ATOM      1  C   UNL     1      -1.088   1.815  -7.346  0.00  0.00    +0.000 A 
ATOM      2  C   UNL     1      -1.276   1.946  -5.938  0.00  0.00    +0.000 A 
ATOM      3  C   UNL     1      -0.505   1.425  -4.891  0.00  0.00    +0.000 A 
ATOM      4  C   UNL     1      -0.865   1.667  -3.599  0.00  0.00    +0.000 A 
ATOM      5  S   UNL     1      -2.329   2.673  -3.775  0.00  0.00    +0.000 S 
ATOM      6  C   UNL     1      -2.399   2.718  -5.548  0.00  0.00    +0.000 A 
ATOM      7  N   UNL     1      -3.200   3.268  -6.436  0.00  0.00    +0.000 NA
ATOM      8  C   UNL     1      -2.972   3.109  -7.733  0.00  0.00    +0.000 A 
ATOM      9  N   UNL     1      -1.938   2.398  -8.169  0.00  0.00    +0.000 NA
ATOM     10  N   UNL     1      -3.826   3.695  -8.648  0.00  0.00    +0.000 N 
ATOM     11  H   UNL     1      -4.632   4.250  -8.329  0.00  0.00    +0.000 HD
ATOM     12  H   UNL     1      -3.654   3.574  -9.657  0.00  0.00    +0.000 HD
ENDROOT
BRANCH   4  13
ATOM     13  C   UNL     1      -0.209   1.218  -2.369  0.00  0.00    +0.000 C 
ATOM     14  O   UNL     1       0.792   0.530  -2.430  0.00  0.00    +0.000 OA
BRANCH  13  15
ATOM     15  O   UNL     1      -0.715   1.567  -1.168  0.00  0.00    +0.000 OA
BRANCH  15  16
ATOM     16  C   UNL     1      -0.013   1.086   0.008  0.00  0.00    +0.000 C 
BRANCH  16  17
ATOM     17  C   UNL     1      -0.729   1.579   1.267  0.00  0.00    +0.000 C 
BRANCH  17  18
ATOM     18  N   UNL     1      -2.062   0.977   1.338  0.00  0.00    +0.000 N 
ATOM     19  C   UNL     1      -3.171   1.526   0.805  0.00  0.00    +0.000 C 
ATOM     20  O   UNL     1      -3.250   2.573   0.198  0.00  0.00    +0.000 OA
ATOM     21  C   UNL     1      -4.298   0.563   1.119  0.00  0.00    +0.000 C 
ATOM     22  N   UNL     1      -3.632  -0.516   1.869  0.00  0.00    +0.000 NA
ATOM     23  C   UNL     1      -2.331  -0.185   1.946  0.00  0.00    +0.000 C 
ATOM     24  O   UNL     1      -1.492  -0.865   2.504  0.00  0.00    +0.000 OA
ENDBRANCH  17  18
ENDBRANCH  16  17
ENDBRANCH  15  16
ENDBRANCH  13  15
ENDBRANCH   4  13
BRANCH   1  26
ATOM     25  C   UNL     1       0.073   1.014  -9.254  0.00  0.00    +0.000 C 
ATOM     26  O   UNL     1      -0.047   1.099  -7.832  0.00  0.00    +0.000 OA
ENDBRANCH   1  26
TORSDOF 6
ENDMDL
MODEL      957
REMARK  Name = ZINC16117999
REMARK  8 active torsions:
REMARK  status: ('A' for Active; 'I' for Inactive)
REMARK    1  A    between atoms: C_1  and  N_2
REMARK    2  A    between atoms: N_6  and  C_9
REMARK    3  A    between atoms: C_9  and  C_10
REMARK    4  A    between atoms: C_10  and  O_12
REMARK    5  A    between atoms: O_12  and  C_13
REMARK    6  A    between atoms: C_13  and  C_14
REMARK    7  A    between atoms: C_17  and  C_23
REMARK    8  A    between atoms: C_19  and  N_20
REMARK                            x       y       z     vdW  Elec       q    Type
REMARK                         _______ _______ _______ _____ _____    ______ ____
ROOT
ATOM      1  C   UNL     1       2.991  -5.244  -3.195  0.00  0.00    +0.000 A 
ATOM      2  C   UNL     1       3.250  -5.960  -2.039  0.00  0.00    +0.000 A 
ATOM      3  C   UNL     1       3.703  -7.260  -2.116  0.00  0.00    +0.000 A 
ATOM      4  C   UNL     1       3.901  -7.854  -3.364  0.00  0.00    +0.000 A 
ATOM      5  C   UNL     1       3.638  -7.127  -4.526  0.00  0.00    +0.000 A 
ATOM      6  C   UNL     1       3.179  -5.829  -4.434  0.00  0.00    +0.000 A 
ENDROOT
BRANCH   4   7
ATOM      7  C   UNL     1       4.387  -9.248  -3.454  0.00  0.00    +0.000 C 
ATOM      8  O   UNL     1       4.558  -9.762  -4.542  0.00  0.00    +0.000 OA
ATOM      9  N   UNL     1       4.640  -9.947  -2.330  0.00  0.00    +0.000 N 
ATOM     10  H   UNL     1       4.495  -9.511  -1.409  0.00  0.00    +0.000 HD
ATOM     11  H   UNL     1       4.979 -10.918  -2.393  0.00  0.00    +0.000 HD
ENDBRANCH   4   7
BRANCH   6  12
ATOM     12  N   UNL     1       2.894  -5.058  -5.665  0.00  0.00    +0.000 N 
ATOM     13  O   UNL     1       3.060  -5.572  -6.758  0.00  0.00    +0.000 OA
ATOM     14  O   UNL     1       2.494  -3.910  -5.587  0.00  0.00    +0.000 OA
ENDBRANCH   6  12
BRANCH   1  15
ATOM     15  C   UNL     1       2.495  -3.824  -3.103  0.00  0.00    +0.000 C 
BRANCH  15  16
ATOM     16  O   UNL     1       2.373  -3.444  -1.707  0.00  0.00    +0.000 OA
BRANCH  16  17
ATOM     17  C   UNL     1       1.940  -2.200  -1.450  0.00  0.00    +0.000 C 
ATOM     18  O   UNL     1       1.671  -1.453  -2.362  0.00  0.00    +0.000 OA
BRANCH  17  19
ATOM     19  C   UNL     1       1.788  -1.734  -0.025  0.00  0.00    +0.000 C 
BRANCH  19  25
ATOM     20  C   UNL     1       1.965   3.232   0.000  0.00  0.00    +0.000 C 
ATOM     21  N   UNL     1       1.409   1.877  -0.001  0.00  0.00    +0.000 N 
ATOM     22  C   UNL     1      -0.018   1.512   0.010  0.00  0.00    +0.000 C 
ATOM     23  C   UNL     1       0.002  -0.004   0.002  0.00  0.00    +0.000 C 
ATOM     24  O   UNL     1      -0.954  -0.749   0.008  0.00  0.00    +0.000 OA
ATOM     25  N   UNL     1       1.304  -0.351  -0.012  0.00  0.00    +0.000 N 
ATOM     26  C   UNL     1       2.101   0.724  -0.014  0.00  0.00    +0.000 C 
ATOM     27  O   UNL     1       3.315   0.665  -0.026  0.00  0.00    +0.000 OA
ENDBRANCH  19  25
ENDBRANCH  17  19
ENDBRANCH  16  17
ENDBRANCH  15  16
ENDBRANCH   1  15
TORSDOF 7
ENDMDL
MODEL      958
REMARK  Name = ZINC27734809
REMARK  12 active torsions:
REMARK  status: ('A' for Active; 'I' for Inactive)
REMARK    1  A    between atoms: C_1  and  C_2
REMARK    2  A    between atoms: C_5  and  C_13
REMARK    3  A    between atoms: C_7  and  N_8
REMARK    4  A    between atoms: N_8  and  S_9
REMARK    5  A    between atoms: S_9  and  C_12
REMARK    6  A    between atoms: C_13  and  O_15
REMARK    7  A    between atoms: O_15  and  C_16
REMARK    8  A    between atoms: C_16  and  C_17
REMARK    9  A    between atoms: C_17  and  C_19
REMARK   10  A    between atoms: C_19  and  C_23
REMARK   11  A    between atoms: C_20  and  C_21
REMARK   12  A    between atoms: C_20  and  N_22
REMARK                            x       y       z     vdW  Elec       q    Type
REMARK                         _______ _______ _______ _____ _____    ______ ____
ROOT
ATOM      1  C   UNL     1      -1.971   3.914   2.045  0.00  0.00    +0.000 C 
ATOM      2  O   UNL     1      -2.219   5.094   1.898  0.00  0.00    +0.000 OA
ENDROOT
BRANCH   1   7
ATOM      3  C   UNL     1       3.487   2.143   2.528  0.00  0.00    +0.000 C 
ATOM      4  C   UNL     1       2.059   2.608   2.401  0.00  0.00    +0.000 A 
ATOM      5  C   UNL     1       1.028   1.689   2.452  0.00  0.00    +0.000 A 
ATOM      6  C   UNL     1      -0.282   2.106   2.332  0.00  0.00    +0.000 A 
ATOM      7  C   UNL     1      -0.570   3.463   2.169  0.00  0.00    +0.000 A 
ATOM      8  C   UNL     1       0.471   4.391   2.117  0.00  0.00    +0.000 A 
ATOM      9  C   UNL     1       1.784   3.960   2.233  0.00  0.00    +0.000 A 
BRANCH   9  10
ATOM     10  N   UNL     1       2.830   4.885   2.182  0.00  0.00    +0.000 N 
ATOM     11  H   UNL     1       3.722   4.629   1.735  0.00  0.00    +0.000 HD
BRANCH  10  12
ATOM     12  S   UNL     1       2.635   6.393   2.839  0.00  0.00    +0.000 S 
ATOM     13  O   UNL     1       3.912   7.005   2.725  0.00  0.00    +0.000 OA
ATOM     14  O   UNL     1       1.508   6.938   2.167  0.00  0.00    +0.000 OA
ATOM     15  C   UNL     1       2.238   6.093   4.583  0.00  0.00    +0.000 C 
ENDBRANCH  10  12
ENDBRANCH   9  10
ENDBRANCH   1   7
BRANCH   1  16
ATOM     16  O   UNL     1      -2.974   3.016   2.096  0.00  0.00    +0.000 OA
BRANCH  16  17
ATOM     17  C   UNL     1      -4.326   3.530   1.968  0.00  0.00    +0.000 C 
BRANCH  17  18
ATOM     18  C   UNL     1      -5.307   2.389   2.047  0.00  0.00    +0.000 C 
ATOM     19  O   UNL     1      -4.906   1.253   2.197  0.00  0.00    +0.000 OA
BRANCH  18  20
ATOM     20  C   UNL     1      -6.697   2.641   1.946  0.00  0.00    +0.000 C 
ATOM     21  C   UNL     1      -7.597   1.594   2.022  0.00  0.00    +0.000 C 
ATOM     22  C   UNL     1      -7.099   0.172   2.053  0.00  0.00    +0.000 C 
BRANCH  21  23
ATOM     23  N   UNL     1      -8.922   1.846   2.069  0.00  0.00    +0.000 N 
ATOM     24  H   UNL     1      -9.263   2.817   2.048  0.00  0.00    +0.000 HD
ATOM     25  H   UNL     1      -9.593   1.066   2.125  0.00  0.00    +0.000 HD
ENDBRANCH  21  23
BRANCH  20  26
ATOM     26  C   UNL     1      -7.170   3.981   1.767  0.00  0.00    +0.000 C 
ATOM     27  N   UNL     1      -7.545   5.044   1.624  0.00  0.00    +0.000 NA
ENDBRANCH  20  26
ENDBRANCH  18  20
ENDBRANCH  17  18
ENDBRANCH  16  17
ENDBRANCH   1  16
TORSDOF 9
ENDMDL
MODEL      959
REMARK  Name = ZINC06041659
REMARK  8 active torsions:
REMARK  status: ('A' for Active; 'I' for Inactive)
REMARK    1  A    between atoms: C_1  and  O_2
REMARK    2  A    between atoms: O_2  and  C_3
REMARK    3  A    between atoms: C_3  and  C_5
REMARK    4  A    between atoms: C_5  and  N_6
REMARK    5  A    between atoms: N_6  and  S_7
REMARK    6  A    between atoms: S_7  and  C_10
REMARK    7  A    between atoms: C_20  and  O_22
REMARK    8  A    between atoms: O_22  and  C_23
REMARK                            x       y       z     vdW  Elec       q    Type
REMARK                         _______ _______ _______ _____ _____    ______ ____
ROOT
ATOM      1  C   UNL     1       1.206  -0.671  -0.013  0.00  0.00    +0.000 A 
ATOM      2  C   UNL     1       2.401   0.033  -0.021  0.00  0.00    +0.000 A 
ATOM      3  C   UNL     1       2.400   1.412  -0.013  0.00  0.00    +0.000 A 
ATOM      4  C   UNL     1       1.196   2.101   0.002  0.00  0.00    +0.000 A 
ATOM      5  C   UNL     1      -0.017   1.393   0.010  0.00  0.00    +0.000 A 
ATOM      6  C   UNL     1       0.002  -0.004   0.002  0.00  0.00    +0.000 A 
ATOM      7  N   UNL     1      -1.016   2.313   0.019  0.00  0.00    +0.000 NA
ATOM      8  C   UNL     1      -0.505   3.518   0.025  0.00  0.00    +0.000 A 
ATOM      9  N   UNL     1       0.858   3.443   0.012  0.00  0.00    +0.000 N 
ATOM     10  N   UNL     1      -1.237   4.693   0.037  0.00  0.00    +0.000 N 
ATOM     11  C   UNL     1      -0.603   5.882   0.037  0.00  0.00    +0.000 C 
ATOM     12  O   UNL     1       0.612   5.923   0.026  0.00  0.00    +0.000 OA
ATOM     13  H   UNL     1       1.513   4.238   0.010  0.00  0.00    +0.000 HD
ATOM     14  H   UNL     1      -2.266   4.658   0.047  0.00  0.00    +0.000 HD
ENDROOT
BRANCH   1  15
ATOM     15  S   UNL     1       1.229  -2.433  -0.023  0.00  0.00    +0.000 S 
ATOM     16  O   UNL     1       2.485  -2.826   0.513  0.00  0.00    +0.000 OA
ATOM     17  O   UNL     1      -0.006  -2.859   0.537  0.00  0.00    +0.000 OA
BRANCH  15  18
ATOM     18  N   UNL     1       1.221  -2.914  -1.608  0.00  0.00    +0.000 NA
ATOM     19  H   UNL     1       0.415  -3.434  -1.984  0.00  0.00    +0.000 HD
BRANCH  18  20
ATOM     20  C   UNL     1       2.358  -2.598  -2.475  0.00  0.00    +0.000 C 
BRANCH  20  21
ATOM     21  C   UNL     1       2.286  -3.437  -3.725  0.00  0.00    +0.000 C 
ATOM     22  O   UNL     1       1.377  -4.219  -3.876  0.00  0.00    +0.000 OA
BRANCH  21  24
ATOM     23  C   UNL     1       3.097  -4.156  -5.847  0.00  0.00    +0.000 C 
ATOM     24  O   UNL     1       3.231  -3.317  -4.670  0.00  0.00    +0.000 OA
ENDBRANCH  21  24
ENDBRANCH  20  21
ENDBRANCH  18  20
ENDBRANCH  15  18
ENDBRANCH   1  15
BRANCH  11  25
ATOM     25  O   UNL     1      -1.315   7.024   0.049  0.00  0.00    +0.000 OA
ATOM     26  C   UNL     1      -0.565   8.268   0.048  0.00  0.00    +0.000 C 
ENDBRANCH  11  25
TORSDOF 6
ENDMDL
MODEL      960
REMARK  Name = ZINC28715575
REMARK  9 active torsions:
REMARK  status: ('A' for Active; 'I' for Inactive)
REMARK    1  A    between atoms: C_1  and  C_2
REMARK    2  A    between atoms: C_2  and  O_3
REMARK    3  A    between atoms: O_3  and  C_4
REMARK    4  A    between atoms: C_6  and  C_12
REMARK    5  A    between atoms: C_9  and  O_10
REMARK    6  A    between atoms: O_10  and  C_11
REMARK    7  A    between atoms: N_14  and  N_15
REMARK    8  A    between atoms: C_16  and  C_18
REMARK    9  A    between atoms: C_20  and  N_23
REMARK                            x       y       z     vdW  Elec       q    Type
REMARK                         _______ _______ _______ _____ _____    ______ ____
ROOT
ATOM      1  C   UNL     1       2.751  -0.809   3.699  0.00  0.00    +0.000 C 
ATOM      2  O   UNL     1       3.279  -1.173   2.667  0.00  0.00    +0.000 OA
ATOM      3  N   UNL     1       3.275  -1.168   4.888  0.00  0.00    +0.000 N 
ATOM      4  H   UNL     1       2.828  -0.859   5.763  0.00  0.00    +0.000 HD
ENDROOT
BRANCH   1   7
ATOM      5  C   UNL     1      -0.148   1.182   2.381  0.00  0.00    +0.000 A 
ATOM      6  C   UNL     1       0.990   0.400   2.420  0.00  0.00    +0.000 A 
ATOM      7  C   UNL     1       1.535   0.027   3.651  0.00  0.00    +0.000 A 
ATOM      8  C   UNL     1       0.926   0.446   4.837  0.00  0.00    +0.000 A 
ATOM      9  C   UNL     1      -0.209   1.226   4.791  0.00  0.00    +0.000 A 
ATOM     10  C   UNL     1      -0.747   1.601   3.567  0.00  0.00    +0.000 A 
BRANCH  10  11
ATOM     11  O   UNL     1      -1.863   2.375   3.527  0.00  0.00    +0.000 OA
ATOM     12  C   UNL     1      -2.425   2.769   4.780  0.00  0.00    +0.000 C 
ENDBRANCH  10  11
BRANCH   5  13
ATOM     13  O   UNL     1      -0.682   1.547   1.184  0.00  0.00    +0.000 OA
BRANCH  13  15
ATOM     14  C   UNL     1      -0.753   1.593  -1.232  0.00  0.00    +0.000 C 
ATOM     15  C   UNL     1      -0.013   1.086   0.008  0.00  0.00    +0.000 C 
ENDBRANCH  13  15
ENDBRANCH   5  13
ENDBRANCH   1   7
BRANCH   3  16
ATOM     16  N   UNL     1       4.429  -1.961   4.933  0.00  0.00    +0.000 N 
ATOM     17  C   UNL     1       4.954  -2.320   6.122  0.00  0.00    +0.000 C 
ATOM     18  O   UNL     1       4.425  -1.955   7.155  0.00  0.00    +0.000 OA
ATOM     19  H   UNL     1       4.877  -2.270   4.059  0.00  0.00    +0.000 HD
BRANCH  17  20
ATOM     20  C   UNL     1       6.162  -3.150   6.170  0.00  0.00    +0.000 A 
ATOM     21  C   UNL     1       6.807  -3.586   7.308  0.00  0.00    +0.000 A 
ATOM     22  C   UNL     1       7.904  -4.347   6.892  0.00  0.00    +0.000 A 
ATOM     23  C   UNL     1       7.915  -4.356   5.537  0.00  0.00    +0.000 A 
ATOM     24  N   UNL     1       6.861  -3.632   5.086  0.00  0.00    +0.000 N 
ATOM     25  H   UNL     1       6.624  -3.469   4.097  0.00  0.00    +0.000 HD
BRANCH  22  26
ATOM     26  N   UNL     1       8.883  -5.019   7.776  0.00  0.00    +0.000 N 
ATOM     27  O   UNL     1       9.804  -5.653   7.293  0.00  0.00    +0.000 OA
ATOM     28  O   UNL     1       8.768  -4.938   8.985  0.00  0.00    +0.000 OA
ENDBRANCH  22  26
ENDBRANCH  17  20
ENDBRANCH   3  16
TORSDOF 7
ENDMDL
MODEL      961
REMARK  Name = ZINC05996393
REMARK  7 active torsions:
REMARK  status: ('A' for Active; 'I' for Inactive)
REMARK    1  A    between atoms: C_1  and  N_15
REMARK    2  A    between atoms: C_2  and  C_3
REMARK    3  A    between atoms: C_2  and  N_15
REMARK    4  A    between atoms: C_3  and  C_4
REMARK    5  A    between atoms: C_3  and  O_11
REMARK    6  A    between atoms: C_8  and  O_10
REMARK    7  A    between atoms: O_11  and  S_12
REMARK                            x       y       z     vdW  Elec       q    Type
REMARK                         _______ _______ _______ _____ _____    ______ ____
ROOT
ATOM      1  C   UNL     1      -0.306   5.309   0.064  0.00  0.00    +0.000 C 
ENDROOT
BRANCH   1   2
ATOM      2  C   UNL     1      -0.058   3.826  -0.027  0.00  0.00    +0.000 A 
ATOM      3  C   UNL     1      -1.121   2.943   0.028  0.00  0.00    +0.000 A 
ATOM      4  C   UNL     1      -0.898   1.582  -0.061  0.00  0.00    +0.000 A 
ATOM      5  C   UNL     1       0.390   1.099  -0.195  0.00  0.00    +0.000 A 
ATOM      6  C   UNL     1       1.458   1.982  -0.251  0.00  0.00    +0.000 A 
ATOM      7  C   UNL     1       1.231   3.349  -0.167  0.00  0.00    +0.000 A 
BRANCH   6   8
ATOM      8  O   UNL     1       2.725   1.510  -0.387  0.00  0.00    +0.000 OA
ATOM      9  H   UNL     1       2.705   0.962  -1.211  0.00  0.00    +0.000 HD
ENDBRANCH   6   8
ENDBRANCH   1   2
BRANCH   1  10
ATOM     10  C   UNL     1      -0.383   5.724   1.535  0.00  0.00    +0.000 C 
BRANCH  10  12
ATOM     11  C   UNL     1      -0.709   7.611   3.017  0.00  0.00    +0.000 C 
ATOM     12  N   UNL     1      -0.501   7.192   1.618  0.00  0.00    +0.000 N 
ATOM     13  H   UNL     1       0.361   7.624   1.256  0.00  0.00    +0.000 HD
ATOM     14  H   UNL     1      -1.299   7.503   1.046  0.00  0.00    +0.000 HD
ENDBRANCH  10  12
ENDBRANCH   1  10
BRANCH   1  15
ATOM     15  O   UNL     1      -1.538   5.628  -0.586  0.00  0.00    +0.000 OA
BRANCH  15  16
ATOM     16  S   UNL     1      -1.455   6.830  -1.515  0.00  0.00    +0.000 S 
ATOM     17  O   UNL     1      -2.780   7.095  -1.956  0.00  0.00    +0.000 OA
ATOM     18  O   UNL     1      -0.665   7.805  -0.848  0.00  0.00    +0.000 OA
ATOM     19  O   UNL     1      -0.666   6.397  -2.743  0.00  0.00    +0.000 OA
ENDBRANCH  15  16
ENDBRANCH   1  15
TORSDOF 6
ENDMDL
MODEL      962
REMARK  Name = ZINC08739346
REMARK  8 active torsions:
REMARK  status: ('A' for Active; 'I' for Inactive)
REMARK    1  A    between atoms: C_1  and  C_2
REMARK    2  A    between atoms: C_2  and  O_3
REMARK    3  A    between atoms: O_3  and  C_4
REMARK    4  A    between atoms: C_4  and  C_6
REMARK    5  A    between atoms: C_7  and  C_19
REMARK    6  A    between atoms: N_13  and  C_16
REMARK    7  A    between atoms: C_16  and  C_17
REMARK    8  A    between atoms: C_17  and  N_20
REMARK                            x       y       z     vdW  Elec       q    Type
REMARK                         _______ _______ _______ _____ _____    ______ ____
ROOT
ATOM      1  C   UNL     1       0.980  -1.986   6.006  0.00  0.00    +0.000 A 
ATOM      2  C   UNL     1       0.193  -1.741   4.918  0.00  0.00    +0.000 A 
ATOM      3  C   UNL     1       0.363  -0.562   4.189  0.00  0.00    +0.000 A 
ATOM      4  C   UNL     1       1.375   0.310   4.656  0.00  0.00    +0.000 A 
ATOM      5  S   UNL     1       2.028  -0.543   6.069  0.00  0.00    +0.000 S 
ATOM      6  N   UNL     1       1.639   1.461   4.056  0.00  0.00    +0.000 NA
ATOM      7  C   UNL     1       0.974   1.851   2.993  0.00  0.00    +0.000 A 
ATOM      8  N   UNL     1      -0.020   1.094   2.454  0.00  0.00    +0.000 N 
ATOM      9  C   UNL     1      -0.370  -0.090   2.993  0.00  0.00    +0.000 A 
ATOM     10  O   UNL     1      -1.264  -0.758   2.506  0.00  0.00    +0.000 OA
ATOM     11  O   UNL     1       1.284   3.032   2.420  0.00  0.00    +0.000 OA
ATOM     12  C   UNL     1      -0.858  -2.739   4.505  0.00  0.00    +0.000 C 
ENDROOT
BRANCH   1  13
ATOM     13  C   UNL     1       0.967  -3.145   6.899  0.00  0.00    +0.000 C 
ATOM     14  O   UNL     1       0.176  -4.050   6.710  0.00  0.00    +0.000 OA
BRANCH  13  15
ATOM     15  O   UNL     1       1.831  -3.209   7.933  0.00  0.00    +0.000 OA
BRANCH  15  17
ATOM     16  C   UNL     1       2.810  -4.264   9.875  0.00  0.00    +0.000 C 
ATOM     17  C   UNL     1       1.762  -4.369   8.765  0.00  0.00    +0.000 C 
ENDBRANCH  15  17
ENDBRANCH  13  15
ENDBRANCH   1  13
BRANCH   8  18
ATOM     18  C   UNL     1      -0.729   1.579   1.267  0.00  0.00    +0.000 C 
BRANCH  18  19
ATOM     19  C   UNL     1      -0.013   1.086   0.008  0.00  0.00    +0.000 C 
BRANCH  19  20
ATOM     20  N   UNL     1      -0.721   1.597  -1.179  0.00  0.00    +0.000 N 
ATOM     21  H   UNL     1      -0.721   2.627  -1.167  0.00  0.00    +0.000 HD
ATOM     22  H   UNL     1      -1.691   1.253  -1.180  0.00  0.00    +0.000 HD
ATOM     23  H   UNL     1      -0.242   1.268  -2.029  0.00  0.00    +0.000 HD
ENDBRANCH  19  20
ENDBRANCH  18  19
ENDBRANCH   8  18
TORSDOF 6
ENDMDL
MODEL      963
REMARK  Name = ZINC19775209
REMARK  6 active torsions:
REMARK  status: ('A' for Active; 'I' for Inactive)
REMARK    1  A    between atoms: C_3  and  N_20
REMARK    2  A    between atoms: C_6  and  C_7
REMARK    3  A    between atoms: C_7  and  C_9
REMARK    4  A    between atoms: C_9  and  C_10
REMARK    5  A    between atoms: C_10  and  N_11
REMARK    6  A    between atoms: C_15  and  C_17
REMARK                            x       y       z     vdW  Elec       q    Type
REMARK                         _______ _______ _______ _____ _____    ______ ____
ROOT
ATOM      1  C   UNL     1      -0.667   1.677   3.662  0.00  0.00    +0.000 C 
ENDROOT
BRANCH   1   2
ATOM      2  C   UNL     1      -0.051   1.081   4.902  0.00  0.00    +0.000 C 
ATOM      3  O   UNL     1       0.762   0.186   4.805  0.00  0.00    +0.000 OA
BRANCH   2   9
ATOM      4  C   UNL     1      -1.370   2.621   6.340  0.00  0.00    +0.000 A 
ATOM      5  C   UNL     1      -1.728   3.083   7.574  0.00  0.00    +0.000 A 
ATOM      6  C   UNL     1      -1.157   2.530   8.719  0.00  0.00    +0.000 A 
ATOM      7  C   UNL     1      -0.223   1.502   8.610  0.00  0.00    +0.000 A 
ATOM      8  C   UNL     1       0.137   1.031   7.380  0.00  0.00    +0.000 A 
ATOM      9  C   UNL     1      -0.435   1.584   6.226  0.00  0.00    +0.000 A 
BRANCH   6  10
ATOM     10  N   UNL     1      -1.520   3.006   9.972  0.00  0.00    +0.000 N 
ATOM     11  H   UNL     1      -2.210   3.767  10.056  0.00  0.00    +0.000 HD
ATOM     12  H   UNL     1      -1.098   2.599  10.819  0.00  0.00    +0.000 HD
ENDBRANCH   6  10
ENDBRANCH   2   9
ENDBRANCH   1   2
BRANCH   1  13
ATOM     13  C   UNL     1      -0.099   0.979   2.425  0.00  0.00    +0.000 C 
BRANCH  13  14
ATOM     14  N   UNL     1      -0.700   1.559   1.216  0.00  0.00    +0.000 N 
ATOM     15  C   UNL     1      -0.705   3.026   1.284  0.00  0.00    +0.000 C 
ATOM     16  C   UNL     1      -1.465   3.591   0.082  0.00  0.00    +0.000 C 
ATOM     17  C   UNL     1      -0.788   3.123  -1.209  0.00  0.00    +0.000 C 
ATOM     18  C   UNL     1      -0.752   1.593  -1.232  0.00  0.00    +0.000 C 
ATOM     19  C   UNL     1      -0.013   1.086   0.008  0.00  0.00    +0.000 C 
ATOM     20  H   UNL     1      -1.679   1.244   1.165  0.00  0.00    +0.000 HD
BRANCH  18  21
ATOM     21  C   UNL     1      -0.035   1.125  -2.472  0.00  0.00    +0.000 C 
ATOM     22  O   UNL     1       0.965   0.454  -2.375  0.00  0.00    +0.000 OA
ATOM     23  O   UNL     1      -0.508   1.452  -3.685  0.00  0.00    +0.000 OA
ENDBRANCH  18  21
ENDBRANCH  13  14
ENDBRANCH   1  13
TORSDOF 6
ENDMDL
MODEL      964
REMARK  Name = ZINC21063225
REMARK  6 active torsions:
REMARK  status: ('A' for Active; 'I' for Inactive)
REMARK    1  A    between atoms: C_4  and  C_9
REMARK    2  A    between atoms: C_5  and  C_7
REMARK    3  A    between atoms: C_7  and  N_8
REMARK    4  A    between atoms: C_9  and  S_10
REMARK    5  A    between atoms: S_10  and  N_13
REMARK    6  A    between atoms: N_13  and  C_14
REMARK                            x       y       z     vdW  Elec       q    Type
REMARK                         _______ _______ _______ _____ _____    ______ ____
ROOT
ATOM      1  C   UNL     1       8.727   3.565   0.227  0.00  0.00    +0.000 A 
ATOM      2  C   UNL     1       8.772   2.393   0.959  0.00  0.00    +0.000 A 
ATOM      3  C   UNL     1       7.612   1.677   1.188  0.00  0.00    +0.000 A 
ATOM      4  C   UNL     1       6.409   2.128   0.677  0.00  0.00    +0.000 A 
ATOM      5  C   UNL     1       6.364   3.300  -0.054  0.00  0.00    +0.000 A 
ATOM      6  C   UNL     1       7.524   4.019  -0.279  0.00  0.00    +0.000 A 
ENDROOT
BRANCH   5   7
ATOM      7  C   UNL     1       5.052   3.795  -0.606  0.00  0.00    +0.000 C 
BRANCH   7   8
ATOM      8  N   UNL     1       4.299   4.473   0.458  0.00  0.00    +0.000 N 
ATOM      9  H   UNL     1       4.845   5.272   0.811  0.00  0.00    +0.000 HD
ATOM     10  H   UNL     1       4.120   3.813   1.228  0.00  0.00    +0.000 HD
ATOM     11  H   UNL     1       3.401   4.811   0.081  0.00  0.00    +0.000 HD
ENDBRANCH   7   8
ENDBRANCH   5   7
BRANCH   4  12
ATOM     12  C   UNL     1       5.145   1.345   0.923  0.00  0.00    +0.000 C 
BRANCH  12  13
ATOM     13  S   UNL     1       4.907   0.144  -0.415  0.00  0.00    +0.000 S 
ATOM     14  O   UNL     1       5.913  -0.858  -0.357  0.00  0.00    +0.000 OA
ATOM     15  O   UNL     1       4.626   0.819  -1.634  0.00  0.00    +0.000 OA
BRANCH  13  16
ATOM     16  N   UNL     1       3.502  -0.645  -0.035  0.00  0.00    +0.000 NA
BRANCH  16  17
ATOM     17  C   UNL     1       2.303   0.046  -0.020  0.00  0.00    +0.000 A 
ATOM     18  N   UNL     1       1.165  -0.633  -0.013  0.00  0.00    +0.000 NA
ATOM     19  C   UNL     1       0.002  -0.004   0.002  0.00  0.00    +0.000 A 
ATOM     20  C   UNL     1      -0.017   1.382   0.010  0.00  0.00    +0.000 A 
ATOM     21  C   UNL     1       1.192   2.061   0.002  0.00  0.00    +0.000 A 
ATOM     22  N   UNL     1       2.320   1.371  -0.013  0.00  0.00    +0.000 NA
ENDBRANCH  16  17
ENDBRANCH  13  16
ENDBRANCH  12  13
ENDBRANCH   4  12
TORSDOF 6
ENDMDL
MODEL      965
REMARK  Name = ZINC31599776
REMARK  6 active torsions:
REMARK  status: ('A' for Active; 'I' for Inactive)
REMARK    1  A    between atoms: C_1  and  C_2
REMARK    2  A    between atoms: C_5  and  C_7
REMARK    3  A    between atoms: C_7  and  N_8
REMARK    4  A    between atoms: C_9  and  C_10
REMARK    5  A    between atoms: C_10  and  S_11
REMARK    6  A    between atoms: S_11  and  S_12
REMARK                            x       y       z     vdW  Elec       q    Type
REMARK                         _______ _______ _______ _____ _____    ______ ____
ROOT
ATOM      1  N   UNL     1      -1.699   2.260   1.102  0.00  0.00    +0.000 N 
ATOM      2  C   UNL     1      -2.442   1.640   0.244  0.00  0.00    +0.000 C 
ATOM      3  N   UNL     1      -3.767   1.422   0.516  0.00  0.00    +0.000 N 
ATOM      4  H   UNL     1      -0.686   2.346   0.939  0.00  0.00    +0.000 HD
ATOM      5  H   UNL     1      -4.171   1.752   1.404  0.00  0.00    +0.000 HD
ATOM      6  H   UNL     1      -4.358   0.929  -0.168  0.00  0.00    +0.000 HD
ENDROOT
BRANCH   1   7
ATOM      7  C   UNL     1      -2.299   2.840   2.307  0.00  0.00    +0.000 C 
BRANCH   7  12
ATOM      8  C   UNL     1      -0.947   8.333   2.601  0.00  0.00    +0.000 C 
ATOM      9  C   UNL     1      -1.525   6.956   2.401  0.00  0.00    +0.000 A 
ATOM     10  C   UNL     1      -2.692   6.597   1.813  0.00  0.00    +0.000 A 
ATOM     11  C   UNL     1      -3.022   5.256   1.741  0.00  0.00    +0.000 A 
ATOM     12  C   UNL     1      -2.168   4.340   2.261  0.00  0.00    +0.000 A 
ATOM     13  S   UNL     1      -0.853   5.374   2.884  0.00  0.00    +0.000 S 
ENDBRANCH   7  12
ENDBRANCH   1   7
BRANCH   2  14
ATOM     14  C   UNL     1      -1.850   1.158  -1.055  0.00  0.00    +0.000 C 
BRANCH  14  15
ATOM     15  S   UNL     1      -0.090   1.595  -1.117  0.00  0.00    +0.000 S 
BRANCH  15  16
ATOM     16  S   UNL     1       0.774   0.372   0.283  0.00  0.00    +0.000 S 
ATOM     17  O   UNL     1       2.118   0.810   0.431  0.00  0.00    +0.000 OA
ATOM     18  O   UNL     1      -0.130   0.305   1.377  0.00  0.00    +0.000 OA
ATOM     19  O   UNL     1       0.836  -1.026  -0.317  0.00  0.00    +0.000 OA
ENDBRANCH  15  16
ENDBRANCH  14  15
ENDBRANCH   2  14
TORSDOF 5
ENDMDL
MODEL      966
REMARK  Name = ZINC19817565
REMARK  7 active torsions:
REMARK  status: ('A' for Active; 'I' for Inactive)
REMARK    1  A    between atoms: C_1  and  N_2
REMARK    2  A    between atoms: C_8  and  C_10
REMARK    3  A    between atoms: C_10  and  S_11
REMARK    4  A    between atoms: S_11  and  C_12
REMARK    5  A    between atoms: C_12  and  C_13
REMARK    6  A    between atoms: C_13  and  C_14
REMARK    7  A    between atoms: C_13  and  N_17
REMARK                            x       y       z     vdW  Elec       q    Type
REMARK                         _______ _______ _______ _____ _____    ______ ____
ROOT
ATOM      1  C   UNK     1       0.684   5.859   3.160  0.00  0.00    +0.000 C 
ENDROOT
BRANCH   1   9
ATOM      2  C   UNK     1       1.823   9.549   8.102  0.00  0.00    +0.000 C 
ATOM      3  N   UNK     1       1.027   9.046   6.975  0.00  0.00    +0.000 NA
ATOM      4  C   UNK     1       1.301   9.813   5.753  0.00  0.00    +0.000 C 
ATOM      5  C   UNK     1       0.327   9.380   4.652  0.00  0.00    +0.000 C 
ATOM      6  N   UNK     1       0.411   7.919   4.502  0.00  0.00    +0.000 N 
ATOM      7  C   UNK     1       0.277   7.087   5.707  0.00  0.00    +0.000 C 
ATOM      8  C   UNK     1       1.259   7.610   6.767  0.00  0.00    +0.000 C 
ATOM      9  C   UNK     1       0.601   7.358   3.291  0.00  0.00    +0.000 C 
ATOM     10  O   UNK     1       0.705   8.060   2.307  0.00  0.00    +0.000 OA
ENDBRANCH   1   9
BRANCH   1  11
ATOM     11  S   UNK     1       0.941   5.418   1.419  0.00  0.00    +0.000 S 
BRANCH  11  12
ATOM     12  C   UNK     1       1.018   3.606   1.432  0.00  0.00    +0.000 C 
BRANCH  12  13
ATOM     13  C   UNK     1       1.235   3.094   0.007  0.00  0.00    +0.000 C 
BRANCH  13  14
ATOM     14  N   UNK     1       2.550   3.536  -0.477  0.00  0.00    +0.000 N 
ATOM     15  H   UNK     1       3.287   3.161   0.138  0.00  0.00    +0.000 HD
ATOM     16  H   UNK     1       2.591   4.565  -0.472  0.00  0.00    +0.000 HD
ATOM     17  H   UNK     1       2.697   3.192  -1.437  0.00  0.00    +0.000 HD
ENDBRANCH  13  14
BRANCH  13  18
ATOM     18  C   UNK     1       1.177   1.588  -0.001  0.00  0.00    +0.000 C 
ATOM     19  O   UNK     1       2.199   0.944  -0.014  0.00  0.00    +0.000 OA
ATOM     20  O   UNK     1      -0.011   0.963   0.007  0.00  0.00    +0.000 OA
ENDBRANCH  13  18
ENDBRANCH  12  13
ENDBRANCH  11  12
ENDBRANCH   1  11
TORSDOF 6
ENDMDL
MODEL      967
REMARK  Name = ZINC21791204
REMARK  7 active torsions:
REMARK  status: ('A' for Active; 'I' for Inactive)
REMARK    1  A    between atoms: C_1  and  O_2
REMARK    2  A    between atoms: O_2  and  C_3
REMARK    3  A    between atoms: C_6  and  O_19
REMARK    4  A    between atoms: C_7  and  N_9
REMARK    5  A    between atoms: N_9  and  S_10
REMARK    6  A    between atoms: S_10  and  N_13
REMARK    7  A    between atoms: O_19  and  C_20
REMARK                            x       y       z     vdW  Elec       q    Type
REMARK                         _______ _______ _______ _____ _____    ______ ____
ROOT
ATOM      1  N   UNL     1       0.024  -0.502   1.581  0.00  0.00    +0.000 N 
ATOM      2  H   UNL     1       0.840  -1.013   1.946  0.00  0.00    +0.000 HD
ENDROOT
BRANCH   1   7
ATOM      3  C   UNL     1      -3.367   0.184   2.839  0.00  0.00    +0.000 A 
ATOM      4  C   UNL     1      -3.093   0.553   4.147  0.00  0.00    +0.000 A 
ATOM      5  C   UNL     1      -1.788   0.572   4.604  0.00  0.00    +0.000 A 
ATOM      6  C   UNL     1      -0.750   0.223   3.755  0.00  0.00    +0.000 A 
ATOM      7  C   UNL     1      -1.023  -0.149   2.441  0.00  0.00    +0.000 A 
ATOM      8  C   UNL     1      -2.332  -0.163   1.984  0.00  0.00    +0.000 A 
BRANCH   3  10
ATOM      9  C   UNL     1      -5.667   0.541   3.325  0.00  0.00    +0.000 C 
ATOM     10  O   UNL     1      -4.651   0.167   2.393  0.00  0.00    +0.000 OA
ENDBRANCH   3  10
BRANCH   6  11
ATOM     11  O   UNL     1       0.534   0.242   4.206  0.00  0.00    +0.000 OA
ATOM     12  C   UNL     1       0.739   0.633   5.565  0.00  0.00    +0.000 C 
ENDBRANCH   6  11
ENDBRANCH   1   7
BRANCH   1  13
ATOM     13  S   UNL     1      -0.051  -0.099  -0.023  0.00  0.00    +0.000 S 
ATOM     14  O   UNL     1      -1.282  -0.611  -0.514  0.00  0.00    +0.000 OA
ATOM     15  O   UNL     1       1.202  -0.456  -0.590  0.00  0.00    +0.000 OA
BRANCH  13  16
ATOM     16  N   UNL     1      -0.156   1.551  -0.109  0.00  0.00    +0.000 NA
ATOM     17  C   UNL     1      -1.464   2.225  -0.116  0.00  0.00    +0.000 C 
ATOM     18  C   UNL     1      -1.510   3.196  -1.294  0.00  0.00    +0.000 C 
ATOM     19  N   UNL     1      -0.349   4.093  -1.235  0.00  0.00    +0.000 N 
ATOM     20  C   UNL     1       0.909   3.346  -1.369  0.00  0.00    +0.000 C 
ATOM     21  C   UNL     1       1.055   2.382  -0.187  0.00  0.00    +0.000 C 
ATOM     22  H   UNL     1      -0.415   4.784  -1.996  0.00  0.00    +0.000 HD
ATOM     23  H   UNL     1      -0.351   4.593  -0.334  0.00  0.00    +0.000 HD
ENDBRANCH  13  16
ENDBRANCH   1  13
TORSDOF 5
ENDMDL
MODEL      968
REMARK  Name = ZINC17253912
REMARK  5 active torsions:
REMARK  status: ('A' for Active; 'I' for Inactive)
REMARK    1  A    between atoms: C_1  and  N_2
REMARK    2  A    between atoms: N_2  and  N_7
REMARK    3  A    between atoms: C_8  and  C_9
REMARK    4  A    between atoms: N_10  and  N_11
REMARK    5  A    between atoms: N_11  and  C_12
REMARK                            x       y       z     vdW  Elec       q    Type
REMARK                         _______ _______ _______ _____ _____    ______ ____
ROOT
ATOM      1  N   UNL     1      -2.630   2.849  -2.906  0.00  0.00    +0.000 NA
ATOM      2  C   UNL     1      -3.378   3.543  -3.714  0.00  0.00    +0.000 C 
ENDROOT
BRANCH   1   4
ATOM      3  C   UNL     1      -4.063   2.409  -0.928  0.00  0.00    +0.000 C 
ATOM      4  N   UNL     1      -2.830   2.932  -1.522  0.00  0.00    +0.000 N 
ATOM      5  C   UNL     1      -1.869   3.504  -0.720  0.00  0.00    +0.000 C 
ATOM      6  C   UNL     1      -0.809   4.264   1.138  0.00  0.00    +0.000 C 
ATOM      7  C   UNL     1       0.089   4.540  -0.084  0.00  0.00    +0.000 C 
ATOM      8  N   UNL     1      -0.697   4.011  -1.212  0.00  0.00    +0.000 N 
ATOM      9  N   UNL     1      -2.000   3.607   0.565  0.00  0.00    +0.000 N 
ATOM     10  H   UNL     1      -0.412   4.020  -2.202  0.00  0.00    +0.000 HD
ATOM     11  H   UNL     1      -2.813   3.280   1.105  0.00  0.00    +0.000 HD
ENDBRANCH   1   4
BRANCH   2  12
ATOM     12  C   UNL     1      -4.337   4.507  -3.177  0.00  0.00    +0.000 C 
ATOM     13  N   UNL     1      -5.022   5.263  -3.985  0.00  0.00    +0.000 NA
BRANCH  13  14
ATOM     14  N   UNL     1      -5.941   6.187  -3.470  0.00  0.00    +0.000 N 
ATOM     15  C   UNL     1      -6.130   6.303  -2.022  0.00  0.00    +0.000 C 
ATOM     16  C   UNL     1      -6.665   6.987  -4.325  0.00  0.00    +0.000 C 
ATOM     17  C   UNL     1      -8.133   8.552  -5.055  0.00  0.00    +0.000 C 
ATOM     18  C   UNL     1      -7.452   7.914  -6.282  0.00  0.00    +0.000 C 
ATOM     19  N   UNL     1      -6.535   6.929  -5.686  0.00  0.00    +0.000 N 
ATOM     20  N   UNL     1      -7.531   7.854  -3.907  0.00  0.00    +0.000 N 
ATOM     21  H   UNL     1      -5.903   6.302  -6.205  0.00  0.00    +0.000 HD
ATOM     22  H   UNL     1      -7.764   8.030  -2.919  0.00  0.00    +0.000 HD
ENDBRANCH  13  14
ENDBRANCH   2  12
TORSDOF 3
ENDMDL
MODEL      969
REMARK  Name = ZINC04340004
REMARK  6 active torsions:
REMARK  status: ('A' for Active; 'I' for Inactive)
REMARK    1  A    between atoms: C_6  and  C_7
REMARK    2  A    between atoms: C_6  and  N_17
REMARK    3  A    between atoms: C_7  and  C_8
REMARK    4  A    between atoms: C_8  and  N_18
REMARK    5  A    between atoms: C_9  and  N_18
REMARK    6  A    between atoms: C_15  and  O_16
REMARK                            x       y       z     vdW  Elec       q    Type
REMARK                         _______ _______ _______ _____ _____    ______ ____
ROOT
ATOM      1  N   UNL     1      -0.509   0.850   2.426  0.00  0.00    +0.000 N 
ATOM      2  H   UNL     1      -0.322  -0.128   2.161  0.00  0.00    +0.000 HD
ATOM      3  H   UNL     1      -1.312   0.878   3.070  0.00  0.00    +0.000 HD
ENDROOT
BRANCH   1   4
ATOM      4  C   UNL     1      -0.828   1.631   1.215  0.00  0.00    +0.000 C 
ATOM      5  C   UNL     1      -0.013   1.086   0.008  0.00  0.00    +0.000 C 
ATOM      6  S   UNL     1      -1.006   1.746  -1.397  0.00  0.00    +0.000 S 
ATOM      7  O   UNL     1      -0.474   3.005  -1.787  0.00  0.00    +0.000 OA
ATOM      8  O   UNL     1      -1.167   0.724  -2.370  0.00  0.00    +0.000 OA
ATOM      9  C   UNL     1      -2.609   2.015  -0.537  0.00  0.00    +0.000 C 
ATOM     10  C   UNL     1      -2.324   1.481   0.888  0.00  0.00    +0.000 C 
BRANCH  10  11
ATOM     11  O   UNL     1      -2.690   0.101   0.960  0.00  0.00    +0.000 OA
ATOM     12  H   UNL     1      -2.517  -0.241   1.873  0.00  0.00    +0.000 HD
ENDBRANCH  10  11
ENDBRANCH   1   4
BRANCH   1  13
ATOM     13  C   UNL     1       0.679   1.410   3.098  0.00  0.00    +0.000 C 
BRANCH  13  14
ATOM     14  C   UNL     1       0.986   0.582   4.347  0.00  0.00    +0.000 C 
BRANCH  14  15
ATOM     15  C   UNL     1       2.217   1.157   5.051  0.00  0.00    +0.000 C 
BRANCH  15  21
ATOM     16  C   UNL     1       1.445   0.505   7.252  0.00  0.00    +0.000 C 
ATOM     17  C   UNL     1       1.762  -0.384   8.457  0.00  0.00    +0.000 C 
ATOM     18  O   UNL     1       3.046  -0.032   8.979  0.00  0.00    +0.000 OA
ATOM     19  C   UNL     1       4.108  -0.161   8.030  0.00  0.00    +0.000 C 
ATOM     20  C   UNL     1       3.815   0.730   6.820  0.00  0.00    +0.000 C 
ATOM     21  N   UNL     1       2.512   0.335   6.244  0.00  0.00    +0.000 NA
ENDBRANCH  15  21
ENDBRANCH  14  15
ENDBRANCH  13  14
ENDBRANCH   1  13
TORSDOF 6
ENDMDL
MODEL      970
REMARK  Name = ZINC31820560
REMARK  7 active torsions:
REMARK  status: ('A' for Active; 'I' for Inactive)
REMARK    1  A    between atoms: C_1  and  O_2
REMARK    2  A    between atoms: O_2  and  N_3
REMARK    3  A    between atoms: N_3  and  C_4
REMARK    4  A    between atoms: C_4  and  C_6
REMARK    5  A    between atoms: C_6  and  S_7
REMARK    6  A    between atoms: S_7  and  C_8
REMARK    7  A    between atoms: C_12  and  N_14
REMARK                            x       y       z     vdW  Elec       q    Type
REMARK                         _______ _______ _______ _____ _____    ______ ____
ROOT
ATOM      1  C   UNL     1      -1.383  -2.364   0.003  0.00  0.00    +0.000 A 
ATOM      2  N   UNL     1      -0.129  -2.793  -0.017  0.00  0.00    +0.000 N 
ATOM      3  C   UNL     1       0.146  -4.096  -0.021  0.00  0.00    +0.000 A 
ATOM      4  C   UNL     1      -0.904  -5.010  -0.016  0.00  0.00    +0.000 A 
ATOM      5  C   UNL     1      -2.208  -4.521  -0.001  0.00  0.00    +0.000 A 
ATOM      6  N   UNL     1      -2.406  -3.205   0.008  0.00  0.00    +0.000 NA
ATOM      7  N   UNL     1       1.460  -4.536  -0.036  0.00  0.00    +0.000 N 
ATOM      8  H   UNL     1       0.642  -2.111  -0.029  0.00  0.00    +0.000 HD
ATOM      9  H   UNL     1       2.228  -3.850  -0.043  0.00  0.00    +0.000 HD
ATOM     10  H   UNL     1       1.668  -5.545  -0.039  0.00  0.00    +0.000 HD
ENDROOT
BRANCH   5  11
ATOM     11  N   UNL     1      -3.284  -5.394   0.005  0.00  0.00    +0.000 N 
ATOM     12  H   UNL     1      -3.117  -6.411  -0.002  0.00  0.00    +0.000 HD
ATOM     13  H   UNL     1      -4.248  -5.029   0.016  0.00  0.00    +0.000 HD
ENDBRANCH   5  11
BRANCH   1  14
ATOM     14  S   UNL     1      -1.696  -0.631   0.015  0.00  0.00    +0.000 S 
BRANCH  14  15
ATOM     15  C   UNL     1       0.002  -0.004   0.002  0.00  0.00    +0.000 C 
BRANCH  15  16
ATOM     16  C   UNL     1      -0.018   1.503   0.010  0.00  0.00    +0.000 C 
ATOM     17  O   UNL     1      -1.077   2.095   0.018  0.00  0.00    +0.000 OA
BRANCH  16  18
ATOM     18  N   UNL     1       1.139   2.192   0.003  0.00  0.00    +0.000 NA
BRANCH  18  20
ATOM     19  C   UNL     1       2.418   4.207   0.002  0.00  0.00    +0.000 C 
ATOM     20  O   UNL     1       1.120   3.608   0.011  0.00  0.00    +0.000 OA
ENDBRANCH  18  20
ENDBRANCH  16  18
ENDBRANCH  15  16
ENDBRANCH  14  15
ENDBRANCH   1  14
TORSDOF 6
ENDMDL
MODEL      971
REMARK  Name = ZINC05117605
REMARK  6 active torsions:
REMARK  status: ('A' for Active; 'I' for Inactive)
REMARK    1  A    between atoms: N_3  and  C_9
REMARK    2  A    between atoms: C_9  and  C_10
REMARK    3  A    between atoms: C_10  and  C_11
REMARK    4  A    between atoms: C_10  and  O_18
REMARK    5  A    between atoms: C_11  and  N_19
REMARK    6  A    between atoms: C_15  and  O_17
REMARK                            x       y       z     vdW  Elec       q    Type
REMARK                         _______ _______ _______ _____ _____    ______ ____
ROOT
ATOM      1  C   UNL     1      -1.381  -0.535   0.386  0.00  0.00    +0.000 C 
ENDROOT
BRANCH   1   2
ATOM      2  O   UNL     1      -2.304  -0.266  -0.671  0.00  0.00    +0.000 OA
ATOM      3  H   UNL     1      -3.199  -0.609  -0.423  0.00  0.00    +0.000 HD
ENDBRANCH   1   2
BRANCH   1   4
ATOM      4  C   UNL     1      -1.300  -2.045   0.621  0.00  0.00    +0.000 C 
BRANCH   4   7
ATOM      5  C   UNL     1      -4.223  -3.175   2.402  0.00  0.00    +0.000 A 
ATOM      6  C   UNL     1      -2.955  -2.721   2.410  0.00  0.00    +0.000 A 
ATOM      7  N   UNL     1      -2.594  -2.534   1.103  0.00  0.00    +0.000 N 
ATOM      8  C   UNL     1      -3.651  -2.889   0.342  0.00  0.00    +0.000 A 
ATOM      9  N   UNL     1      -4.622  -3.272   1.125  0.00  0.00    +0.000 NA
ATOM     10  N   UNL     1      -3.701  -2.850  -1.137  0.00  0.00    +0.000 N 
ATOM     11  O   UNL     1      -2.730  -2.472  -1.770  0.00  0.00    +0.000 OA
ATOM     12  O   UNL     1      -4.712  -3.195  -1.722  0.00  0.00    +0.000 OA
ENDBRANCH   4   7
ENDBRANCH   1   4
BRANCH   1  13
ATOM     13  C   UNL     1       0.002  -0.004   0.002  0.00  0.00    +0.000 C 
BRANCH  13  19
ATOM     14  C   UNL     1       1.065   1.944  -0.965  0.00  0.00    +0.000 C 
ATOM     15  C   UNL     1       0.889   3.440  -1.235  0.00  0.00    +0.000 C 
ATOM     16  C   UNL     1       0.826   4.190   0.099  0.00  0.00    +0.000 C 
ATOM     17  C   UNL     1      -0.325   3.629   0.938  0.00  0.00    +0.000 C 
ATOM     18  C   UNL     1      -0.113   2.127   1.144  0.00  0.00    +0.000 C 
ATOM     19  N   UNL     1      -0.087   1.460  -0.175  0.00  0.00    +0.000 N 
ATOM     20  H   UNL     1      -0.956   1.685  -0.680  0.00  0.00    +0.000 HD
BRANCH  17  21
ATOM     21  O   UNL     1      -0.356   4.285   2.206  0.00  0.00    +0.000 OA
ATOM     22  H   UNL     1      -0.490   5.257   2.072  0.00  0.00    +0.000 HD
ENDBRANCH  17  21
ENDBRANCH  13  19
ENDBRANCH   1  13
TORSDOF 6
ENDMDL
MODEL      972
REMARK  Name = ZINC05521422
REMARK  7 active torsions:
REMARK  status: ('A' for Active; 'I' for Inactive)
REMARK    1  A    between atoms: C_2  and  C_15
REMARK    2  A    between atoms: N_3  and  C1*_6
REMARK    3  A    between atoms: C2*_7  and  O2*_14
REMARK    4  A    between atoms: C3*_8  and  O3*_13
REMARK    5  A    between atoms: C4*_9  and  C5*_11
REMARK    6  A    between atoms: C5*_11  and  O5*_12
REMARK    7  A    between atoms: C_15  and  N_16
REMARK                            x       y       z     vdW  Elec       q    Type
REMARK                         _______ _______ _______ _____ _____    ______ ____
ROOT
ATOM      1  C1* UNL     1      -1.173  -0.878   0.009  0.00  0.00    +0.000 C 
ATOM      2  C2* UNL     1      -1.815  -0.906   1.413  0.00  0.00    +0.000 C 
ATOM      3  C3* UNL     1      -2.925   0.167   1.340  0.00  0.00    +0.000 C 
ATOM      4  C4* UNL     1      -2.822   0.716  -0.101  0.00  0.00    +0.000 C 
ATOM      5  O4* UNL     1      -2.200  -0.347  -0.856  0.00  0.00    +0.000 OA
ENDROOT
BRANCH   1   8
ATOM      6  C   UNL     1       2.043   0.716  -0.014  0.00  0.00    +0.000 A 
ATOM      7  C   UNL     1       1.293  -0.411  -0.013  0.00  0.00    +0.000 A 
ATOM      8  N   UNL     1       0.002  -0.004   0.002  0.00  0.00    +0.000 N 
ATOM      9  N   UNL     1      -0.015   1.283   0.009  0.00  0.00    +0.000 NA
ATOM     10  N   UNL     1       1.186   1.743   0.000  0.00  0.00    +0.000 NA
BRANCH   7  11
ATOM     11  C   UNL     1       1.794  -1.832  -0.025  0.00  0.00    +0.000 C 
BRANCH  11  12
ATOM     12  N   UNL     1       1.856  -2.339   1.348  0.00  0.00    +0.000 NA
ATOM     13  N   UNL     1       1.252  -3.240   1.643  0.00  0.00    +0.000 NA
ATOM     14  N   UNL     1       0.647  -4.141   1.937  0.00  0.00    +0.000 NA
ENDBRANCH  11  12
ENDBRANCH   7  11
ENDBRANCH   1   8
BRANCH   2  15
ATOM     15  O2* UNL     1      -0.851  -0.565   2.411  0.00  0.00    +0.000 OA
ATOM     16  H2* UNL     1      -0.501   0.342   2.226  0.00  0.00    +0.000 HD
ENDBRANCH   2  15
BRANCH   3  17
ATOM     17  O3* UNL     1      -4.207  -0.423   1.563  0.00  0.00    +0.000 OA
ATOM     18  H3* UNL     1      -4.216  -0.847   2.458  0.00  0.00    +0.000 HD
ENDBRANCH   3  17
BRANCH   4  19
ATOM     19  C5* UNL     1      -4.215   1.022  -0.655  0.00  0.00    +0.000 C 
BRANCH  19  20
ATOM     20  O5* UNL     1      -4.092   1.635  -1.940  0.00  0.00    +0.000 OA
ATOM     21  H5* UNL     1      -3.620   1.021  -2.556  0.00  0.00    +0.000 HD
ENDBRANCH  19  20
ENDBRANCH   4  19
TORSDOF 7
ENDMDL
MODEL      973
REMARK  Name = ZINC19504327
REMARK  7 active torsions:
REMARK  status: ('A' for Active; 'I' for Inactive)
REMARK    1  A    between atoms: C_1  and  O_2
REMARK    2  A    between atoms: O_2  and  C_3
REMARK    3  A    between atoms: C_6  and  CA_13
REMARK    4  A    between atoms: C_8  and  O_9
REMARK    5  A    between atoms: O_9  and  C_10
REMARK    6  A    between atoms: CA_13  and  C_14
REMARK    7  A    between atoms: CA_13  and  N_17
REMARK                            x       y       z     vdW  Elec       q    Type
REMARK                         _______ _______ _______ _____ _____    ______ ____
ROOT
ATOM      1  C   UNL     1      -0.749   1.909   3.568  0.00  0.00    +0.000 A 
ATOM      2  C   UNL     1      -0.205   1.530   4.785  0.00  0.00    +0.000 A 
ATOM      3  C   UNL     1       0.934   0.747   4.819  0.00  0.00    +0.000 A 
ATOM      4  C   UNL     1       1.530   0.337   3.641  0.00  0.00    +0.000 A 
ATOM      5  C   UNL     1       0.989   0.707   2.424  0.00  0.00    +0.000 A 
ATOM      6  C   UNL     1      -0.153   1.491   2.382  0.00  0.00    +0.000 A 
ENDROOT
BRANCH   1   8
ATOM      7  C   UNL     1      -2.425   3.075   4.788  0.00  0.00    +0.000 C 
ATOM      8  O   UNL     1      -1.867   2.683   3.532  0.00  0.00    +0.000 OA
ENDBRANCH   1   8
BRANCH   6   9
ATOM      9  O   UNL     1      -0.686   1.856   1.185  0.00  0.00    +0.000 OA
BRANCH   9  10
ATOM     10  C   UNL     1      -0.017   1.395   0.010  0.00  0.00    +0.000 C 
ATOM     11  F   UNL     1       0.002  -0.004   0.002  0.00  0.00    +0.000 F 
ATOM     12  F   UNL     1       1.296   1.879  -0.000  0.00  0.00    +0.000 F 
ENDBRANCH   9  10
ENDBRANCH   6   9
BRANCH   4  13
ATOM     13  CA  UNL     1       2.771  -0.517   3.684  0.00  0.00    +0.000 C 
BRANCH  13  14
ATOM     14  N   UNL     1       3.654  -0.042   4.758  0.00  0.00    +0.000 N 
ATOM     15  H1  UNL     1       3.163  -0.106   5.661  0.00  0.00    +0.000 HD
ATOM     16  H2  UNL     1       3.918   0.937   4.579  0.00  0.00    +0.000 HD
ATOM     17  H3  UNL     1       4.503  -0.625   4.787  0.00  0.00    +0.000 HD
ENDBRANCH  13  14
BRANCH  13  18
ATOM     18  C   UNL     1       2.387  -1.950   3.947  0.00  0.00    +0.000 C 
ATOM     19  O   UNL     1       2.486  -2.408   5.060  0.00  0.00    +0.000 OA
ATOM     20  OXT UNL     1       1.934  -2.718   2.943  0.00  0.00    +0.000 OA
ENDBRANCH  13  18
ENDBRANCH   4  13
TORSDOF 6
ENDMDL
MODEL      974
REMARK  Name = ZINC21985363
REMARK  10 active torsions:
REMARK  status: ('A' for Active; 'I' for Inactive)
REMARK    1  A    between atoms: C_1  and  C_2
REMARK    2  A    between atoms: C_3  and  O_16
REMARK    3  A    between atoms: C_4  and  N_13
REMARK    4  A    between atoms: C_5  and  N_12
REMARK    5  A    between atoms: C_6  and  O_8
REMARK    6  A    between atoms: O_8  and  C_9
REMARK    7  A    between atoms: C_9  and  C_10
REMARK    8  A    between atoms: C_9  and  C_11
REMARK    9  A    between atoms: O_16  and  C_17
REMARK   10  A    between atoms: C_17  and  C_19
REMARK                            x       y       z     vdW  Elec       q    Type
REMARK                         _______ _______ _______ _____ _____    ______ ____
ROOT
ATOM      1  C   UNL     1       3.631   1.935   1.165  0.00  0.00    +0.000 C 
ATOM      2  C   UNL     1       2.174   1.469   1.202  0.00  0.00    +0.000 C 
ATOM      3  C   UNL     1       1.422   2.047  -0.001  0.00  0.00    +0.000 C 
ATOM      4  C   UNL     1      -0.019   1.528   0.010  0.00  0.00    +0.000 C 
ATOM      5  C   UNL     1       0.002  -0.004   0.002  0.00  0.00    +0.000 C 
ATOM      6  C   UNL     1       0.808  -0.502   1.204  0.00  0.00    +0.000 C 
ATOM      7  O   UNL     1       2.128   0.042   1.149  0.00  0.00    +0.000 OA
ENDROOT
BRANCH   5   8
ATOM      8  N   UNL     1      -1.373  -0.514   0.088  0.00  0.00    +0.000 N 
ATOM      9  H   UNL     1      -1.917  -0.174  -0.719  0.00  0.00    +0.000 HD
ATOM     10  H   UNL     1      -1.809  -0.182   0.960  0.00  0.00    +0.000 HD
ATOM     11  H   UNL     1      -1.359  -1.544   0.082  0.00  0.00    +0.000 HD
ENDBRANCH   5   8
BRANCH   4  12
ATOM     12  N   UNL     1      -0.701   2.002   1.217  0.00  0.00    +0.000 NA
ATOM     13  N   UNL     1      -1.794   1.786   1.365  0.00  0.00    +0.000 NA
ATOM     14  N   UNL     1      -2.888   1.571   1.514  0.00  0.00    +0.000 NA
ENDBRANCH   4  12
BRANCH   6  15
ATOM     15  O   UNL     1       0.879  -1.929   1.172  0.00  0.00    +0.000 OA
BRANCH  15  16
ATOM     16  C   UNL     1       1.414  -2.512   2.363  0.00  0.00    +0.000 C 
ATOM     17  C   UNL     1       0.800  -3.898   2.572  0.00  0.00    +0.000 C 
ATOM     18  C   UNL     1       2.933  -2.641   2.230  0.00  0.00    +0.000 C 
ENDBRANCH  15  16
ENDBRANCH   6  15
BRANCH   3  19
ATOM     19  O   UNL     1       2.078   1.632  -1.228  0.00  0.00    +0.000 OA
BRANCH  19  20
ATOM     20  C   UNL     1       3.038   2.438  -1.708  0.00  0.00    +0.000 C 
ATOM     21  O   UNL     1       3.321   3.456  -1.122  0.00  0.00    +0.000 OA
ATOM     22  C   UNL     1       3.764   2.072  -2.978  0.00  0.00    +0.000 C 
ENDBRANCH  19  20
ENDBRANCH   3  19
TORSDOF 6
ENDMDL
MODEL      975
REMARK  Name = ZINC20394288
REMARK  4 active torsions:
REMARK  status: ('A' for Active; 'I' for Inactive)
REMARK    1  A    between atoms: C_4  and  C_7
REMARK    2  A    between atoms: N_17  and  C_20
REMARK    3  A    between atoms: C_20  and  C_21
REMARK    4  A    between atoms: C_21  and  N_22
REMARK                            x       y       z     vdW  Elec       q    Type
REMARK                         _______ _______ _______ _____ _____    ______ ____
ROOT
ATOM      1  C   UNL     1      -2.564   4.393  -4.600  0.00  0.00    +0.000 A 
ATOM      2  C   UNL     1      -2.382   5.329  -3.486  0.00  0.00    +0.000 A 
ATOM      3  O   UNL     1      -2.749   6.489  -3.569  0.00  0.00    +0.000 OA
ATOM      4  N   UNL     1      -1.788   4.859  -2.364  0.00  0.00    +0.000 NA
ATOM      5  C   UNL     1      -1.395   3.556  -2.332  0.00  0.00    +0.000 A 
ATOM      6  N   UNL     1      -1.589   2.756  -3.365  0.00  0.00    +0.000 NA
ATOM      7  N   UNL     1      -2.147   3.147  -4.453  0.00  0.00    +0.000 NA
ATOM      8  N   UNL     1      -0.788   3.065  -1.208  0.00  0.00    +0.000 N 
ATOM      9  C   UNL     1      -0.556   1.619  -1.324  0.00  0.00    +0.000 C 
ATOM     10  C   UNL     1       0.193   1.124  -0.085  0.00  0.00    +0.000 C 
ATOM     11  N   UNL     1      -0.594   1.434   1.117  0.00  0.00    +0.000 NA
ATOM     12  C   UNL     1      -0.826   2.880   1.232  0.00  0.00    +0.000 C 
ATOM     13  C   UNL     1      -1.576   3.375  -0.007  0.00  0.00    +0.000 C 
ENDROOT
BRANCH   1  17
ATOM     14  C   UNL     1      -4.391   5.657  -8.223  0.00  0.00    +0.000 A 
ATOM     15  C   UNL     1      -3.490   4.607  -8.236  0.00  0.00    +0.000 A 
ATOM     16  C   UNL     1      -2.893   4.192  -7.063  0.00  0.00    +0.000 A 
ATOM     17  C   UNL     1      -3.200   4.833  -5.862  0.00  0.00    +0.000 A 
ATOM     18  C   UNL     1      -4.114   5.887  -5.855  0.00  0.00    +0.000 A 
ATOM     19  C   UNL     1      -4.699   6.297  -7.035  0.00  0.00    +0.000 A 
ENDBRANCH   1  17
BRANCH  11  20
ATOM     20  C   UNL     1       0.058   0.907   2.324  0.00  0.00    +0.000 C 
BRANCH  20  21
ATOM     21  C   UNL     1      -0.647   1.456   3.565  0.00  0.00    +0.000 C 
BRANCH  21  22
ATOM     22  N   UNL     1       0.005   0.929   4.772  0.00  0.00    +0.000 N 
ATOM     23  H   UNL     1       0.993   1.218   4.783  0.00  0.00    +0.000 HD
ATOM     24  H   UNL     1      -0.051  -0.099   4.772  0.00  0.00    +0.000 HD
ATOM     25  H   UNL     1      -0.470   1.298   5.608  0.00  0.00    +0.000 HD
ENDBRANCH  21  22
ENDBRANCH  20  21
ENDBRANCH  11  20
TORSDOF 4
ENDMDL
MODEL      976
REMARK  Name = ZINC01839390
REMARK  6 active torsions:
REMARK  status: ('A' for Active; 'I' for Inactive)
REMARK    1  A    between atoms: C_1  and  N_2
REMARK    2  A    between atoms: N_2  and  C_3
REMARK    3  A    between atoms: N_2  and  C_4
REMARK    4  A    between atoms: C_4  and  C_5
REMARK    5  A    between atoms: C_5  and  N_6
REMARK    6  A    between atoms: C_7  and  C_8
REMARK                            x       y       z     vdW  Elec       q    Type
REMARK                         _______ _______ _______ _____ _____    ______ ____
ROOT
ATOM      1  C   UNL     1       2.420   1.270  -0.014  0.00  0.00    +0.000 A 
ATOM      2  C   UNL     1       2.307  -0.243  -0.022  0.00  0.00    +0.000 A 
ATOM      3  N   UNL     1       1.101  -0.758  -0.013  0.00  0.00    +0.000 N 
ATOM      4  C   UNL     1       0.002  -0.004   0.002  0.00  0.00    +0.000 A 
ATOM      5  N   UNL     1      -0.016   1.313   0.009  0.00  0.00    +0.000 N 
ATOM      6  C   UNL     1       1.108   2.034   0.002  0.00  0.00    +0.000 A 
ATOM      7  O   UNL     1       1.081   3.249   0.009  0.00  0.00    +0.000 OA
ATOM      8  O   UNL     1      -1.187  -0.640   0.010  0.00  0.00    +0.000 OA
ATOM      9  O   UNL     1       3.399  -1.023  -0.036  0.00  0.00    +0.000 OA
ATOM     10  H   UNL     1       0.999  -1.783  -0.018  0.00  0.00    +0.000 HD
ATOM     11  H   UNL     1      -0.923   1.801   0.021  0.00  0.00    +0.000 HD
ENDROOT
BRANCH   1  13
ATOM     12  N   UNL     1       4.307   2.324   1.064  0.00  0.00    +0.000 NA
ATOM     13  C   UNL     1       3.212   1.677   1.202  0.00  0.00    +0.000 C 
BRANCH  12  14
ATOM     14  C   UNL     1       5.077   2.719   2.246  0.00  0.00    +0.000 C 
BRANCH  14  15
ATOM     15  C   UNL     1       6.423   1.990   2.245  0.00  0.00    +0.000 C 
BRANCH  15  17
ATOM     16  C   UNL     1       6.545   1.920   4.663  0.00  0.00    +0.000 C 
ATOM     17  N   UNL     1       7.195   2.387   3.431  0.00  0.00    +0.000 N 
ATOM     18  C   UNL     1       8.577   1.897   3.346  0.00  0.00    +0.000 C 
ATOM     19  H   UNL     1       7.225   3.416   3.459  0.00  0.00    +0.000 HD
ENDBRANCH  15  17
ENDBRANCH  14  15
ENDBRANCH  12  14
ENDBRANCH   1  13
TORSDOF 4
ENDMDL
MODEL      977
REMARK  Name = ZINC01731868
REMARK  6 active torsions:
REMARK  status: ('A' for Active; 'I' for Inactive)
REMARK    1  A    between atoms: C_1  and  C_2
REMARK    2  A    between atoms: C_2  and  N_3
REMARK    3  A    between atoms: C_4  and  C_5
REMARK    4  A    between atoms: C_5  and  C_6
REMARK    5  A    between atoms: C_5  and  S_7
REMARK    6  A    between atoms: S_7  and  S_8
REMARK                            x       y       z     vdW  Elec       q    Type
REMARK                         _______ _______ _______ _____ _____    ______ ____
ROOT
ATOM      1  N   UNL     1       1.533   1.152   0.991  0.00  0.00    +0.000 N 
ATOM      2  C   UNL     1       1.055   1.589  -0.216  0.00  0.00    +0.000 C 
ATOM      3  N   UNL     1       1.780   2.284  -1.064  0.00  0.00    +0.000 N 
ATOM      4  H   UNL     1       0.924   0.610   1.620  0.00  0.00    +0.000 HD
ATOM      5  H   UNL     1       2.751   2.504  -0.798  0.00  0.00    +0.000 HD
ATOM      6  H   UNL     1       1.399   2.603  -1.966  0.00  0.00    +0.000 HD
ENDROOT
BRANCH   1   8
ATOM      7  C   UNL     1       3.189   0.856   2.766  0.00  0.00    +0.000 C 
ATOM      8  C   UNL     1       2.911   1.454   1.385  0.00  0.00    +0.000 C 
ENDBRANCH   1   8
BRANCH   2   9
ATOM      9  C   UNL     1      -0.363   1.278  -0.623  0.00  0.00    +0.000 C 
ATOM     10  C   UNL     1      -1.324   1.771   0.461  0.00  0.00    +0.000 C 
BRANCH   9  11
ATOM     11  S   UNL     1      -0.740   2.111  -2.189  0.00  0.00    +0.000 S 
BRANCH  11  12
ATOM     12  S   UNL     1      -2.618   1.444  -2.667  0.00  0.00    +0.000 S 
ATOM     13  O   UNL     1      -2.887   1.897  -3.986  0.00  0.00    +0.000 OA
ATOM     14  O   UNL     1      -2.664   0.069  -2.309  0.00  0.00    +0.000 OA
ATOM     15  O   UNL     1      -3.598   2.164  -1.751  0.00  0.00    +0.000 OA
ENDBRANCH  11  12
ENDBRANCH   9  11
ENDBRANCH   2   9
TORSDOF 4
ENDMDL
MODEL      978
REMARK  Name = ZINC05513247
REMARK  7 active torsions:
REMARK  status: ('A' for Active; 'I' for Inactive)
REMARK    1  A    between atoms: C_1  and  O_2
REMARK    2  A    between atoms: O_2  and  C_3
REMARK    3  A    between atoms: C_6  and  C_11
REMARK    4  A    between atoms: C_7  and  O_9
REMARK    5  A    between atoms: O_9  and  C_10
REMARK    6  A    between atoms: N_12  and  N_13
REMARK    7  A    between atoms: N_18  and  N_19
REMARK                            x       y       z     vdW  Elec       q    Type
REMARK                         _______ _______ _______ _____ _____    ______ ____
ROOT
ATOM      1  C   UNL     1      -2.517   3.879   0.046  0.00  0.00    +0.000 C 
ATOM      2  N   UNL     1      -3.636   3.221   0.053  0.00  0.00    +0.000 NA
ENDROOT
BRANCH   2   3
ATOM      3  N   UNL     1      -4.855   3.912   0.068  0.00  0.00    +0.000 N 
ATOM      4  C   UNL     1      -6.048   3.210   0.075  0.00  0.00    +0.000 A 
ATOM      5  N   UNL     1      -6.186   1.905   0.070  0.00  0.00    +0.000 NA
ATOM      6  N   UNL     1      -7.434   1.598   0.080  0.00  0.00    +0.000 NA
ATOM      7  C   UNL     1      -8.161   2.680   0.092  0.00  0.00    +0.000 A 
ATOM      8  N   UNL     1      -7.305   3.745   0.095  0.00  0.00    +0.000 N 
ATOM      9  H   UNL     1      -4.863   4.942   0.073  0.00  0.00    +0.000 HD
BRANCH   8  10
ATOM     10  N   UNL     1      -7.637   5.070   0.112  0.00  0.00    +0.000 N 
ATOM     11  H   UNL     1      -6.836   5.718   0.108  0.00  0.00    +0.000 HD
ATOM     12  H   UNL     1      -8.607   5.415   0.126  0.00  0.00    +0.000 HD
ENDBRANCH   8  10
ENDBRANCH   2   3
BRANCH   1  16
ATOM     13  C   UNL     1       1.180   1.785   0.000  0.00  0.00    +0.000 A 
ATOM     14  C   UNL     1       1.168   3.175   0.008  0.00  0.00    +0.000 A 
ATOM     15  C   UNL     1      -0.029   3.858   0.023  0.00  0.00    +0.000 A 
ATOM     16  C   UNL     1      -1.235   3.153   0.030  0.00  0.00    +0.000 A 
ATOM     17  C   UNL     1      -1.220   1.751   0.017  0.00  0.00    +0.000 A 
ATOM     18  C   UNL     1      -0.013   1.076   0.008  0.00  0.00    +0.000 A 
BRANCH  13  20
ATOM     19  C   UNL     1       3.553   1.910  -0.021  0.00  0.00    +0.000 C 
ATOM     20  O   UNL     1       2.363   1.119  -0.014  0.00  0.00    +0.000 OA
ENDBRANCH  13  20
BRANCH  17  21
ATOM     21  O   UNL     1      -2.389   1.058   0.019  0.00  0.00    +0.000 OA
ATOM     22  C   UNL     1      -2.296  -0.368   0.011  0.00  0.00    +0.000 C 
ENDBRANCH  17  21
ENDBRANCH   1  16
TORSDOF 5
ENDMDL
MODEL      979
REMARK  Name = ZINC16137374
REMARK  4 active torsions:
REMARK  status: ('A' for Active; 'I' for Inactive)
REMARK    1  A    between atoms: C_1  and  C_11
REMARK    2  A    between atoms: C_2  and  N_8
REMARK    3  A    between atoms: C_11  and  C_12
REMARK    4  A    between atoms: C_11  and  C_15
REMARK                            x       y       z     vdW  Elec       q    Type
REMARK                         _______ _______ _______ _____ _____    ______ ____
ROOT
ATOM      1  C   UNL     1       1.549   2.674  -1.246  0.00  0.00    +0.000 C 
ENDROOT
BRANCH   1   2
ATOM      2  C   UNL     1       1.525   1.222  -0.765  0.00  0.00    +0.000 C 
ATOM      3  C   UNL     1       2.304   0.347  -1.719  0.00  0.00    +0.000 C 
ATOM      4  C   UNL     1       1.383  -0.595  -2.213  0.00  0.00    +0.000 C 
ATOM      5  C   UNL     1       0.088  -0.320  -1.595  0.00  0.00    +0.000 C 
ATOM      6  O   UNL     1      -0.929  -0.952  -1.804  0.00  0.00    +0.000 OA
ATOM      7  O   UNL     1       0.183   0.731  -0.761  0.00  0.00    +0.000 OA
ATOM      8 CL   UNL     1       1.725  -1.859  -3.353  0.00  0.00    +0.000 Cl
BRANCH   3   9
ATOM      9  N   UNL     1       3.571   0.445  -2.022  0.00  0.00    +0.000 NA
ATOM     10  N   UNL     1       4.031  -0.276  -2.752  0.00  0.00    +0.000 NA
ATOM     11  N   UNL     1       4.491  -0.996  -3.482  0.00  0.00    +0.000 NA
ENDBRANCH   3   9
ENDBRANCH   1   2
BRANCH   1  12
ATOM     12  C   UNL     1       0.742   3.530  -0.305  0.00  0.00    +0.000 C 
ATOM     13  O   UNL     1       1.254   3.976   0.700  0.00  0.00    +0.000 OA
ATOM     14  N   UNL     1      -0.550   3.800  -0.579  0.00  0.00    +0.000 N 
ATOM     15  H   UNL     1      -0.985   3.422  -1.433  0.00  0.00    +0.000 HD
ATOM     16  H   UNL     1      -1.101   4.385   0.065  0.00  0.00    +0.000 HD
ENDBRANCH   1  12
BRANCH   1  17
ATOM     17  C   UNL     1       2.973   3.169  -1.279  0.00  0.00    +0.000 C 
ATOM     18  O   UNL     1       3.760   2.805  -0.431  0.00  0.00    +0.000 OA
ATOM     19  N   UNL     1       3.370   4.014  -2.251  0.00  0.00    +0.000 N 
ATOM     20  H   UNL     1       2.701   4.323  -2.970  0.00  0.00    +0.000 HD
ATOM     21  H   UNL     1       4.343   4.352  -2.273  0.00  0.00    +0.000 HD
ENDBRANCH   1  17
TORSDOF 4
ENDMDL
MODEL      980
REMARK  Name = ZINC19791785
REMARK  5 active torsions:
REMARK  status: ('A' for Active; 'I' for Inactive)
REMARK    1  A    between atoms: C_1  and  S_2
REMARK    2  A    between atoms: S_2  and  C_3
REMARK    3  A    between atoms: N_5  and  N_6
REMARK    4  A    between atoms: C_7  and  C_8
REMARK    5  A    between atoms: C_11  and  C_14
REMARK                            x       y       z     vdW  Elec       q    Type
REMARK                         _______ _______ _______ _____ _____    ______ ____
ROOT
ATOM      1  N   UNL     1      -5.017   5.298   0.056  0.00  0.00    +0.000 NA
ATOM      2  C   UNL     1      -4.999   3.999   0.048  0.00  0.00    +0.000 C 
ENDROOT
BRANCH   2   3
ATOM      3  C   UNL     1      -3.714   3.280   0.038  0.00  0.00    +0.000 A 
ATOM      4  C   UNL     1      -3.695   1.881   0.030  0.00  0.00    +0.000 A 
ATOM      5  C   UNL     1      -2.503   1.215   0.021  0.00  0.00    +0.000 A 
ATOM      6  C   UNL     1      -1.302   1.931   0.019  0.00  0.00    +0.000 A 
ATOM      7  C   UNL     1      -1.320   3.329   0.032  0.00  0.00    +0.000 A 
ATOM      8  C   UNL     1      -2.512   3.996   0.037  0.00  0.00    +0.000 A 
BRANCH   6   9
ATOM      9  C   UNL     1      -0.014   1.211   0.009  0.00  0.00    +0.000 C 
ATOM     10  O   UNL     1       0.002  -0.004   0.002  0.00  0.00    +0.000 OA
ATOM     11  O   UNL     1       1.143   1.901   0.001  0.00  0.00    +0.000 OA
ENDBRANCH   6   9
ENDBRANCH   2   3
BRANCH   1  14
ATOM     12  C   UNL     1      -6.258   7.360   0.073  0.00  0.00    +0.000 C 
ATOM     13  N   UNL     1      -5.138   8.027   0.072  0.00  0.00    +0.000 NA
ATOM     14  N   UNL     1      -6.240   5.982   0.066  0.00  0.00    +0.000 N 
ATOM     15  H   UNL     1      -5.152   9.057   0.078  0.00  0.00    +0.000 HD
ATOM     16  H   UNL     1      -7.125   5.455   0.067  0.00  0.00    +0.000 HD
BRANCH  12  18
ATOM     17  C   UNL     1      -7.200   9.929   0.093  0.00  0.00    +0.000 C 
ATOM     18  S   UNL     1      -7.796   8.220   0.086  0.00  0.00    +0.000 S 
ENDBRANCH  12  18
ENDBRANCH   1  14
TORSDOF 4
ENDMDL
MODEL      981
REMARK  Name = ZINC20313019
REMARK  6 active torsions:
REMARK  status: ('A' for Active; 'I' for Inactive)
REMARK    1  A    between atoms: C_1  and  N_2
REMARK    2  A    between atoms: C_3  and  C_10
REMARK    3  A    between atoms: C_5  and  C_7
REMARK    4  A    between atoms: N_12  and  C_13
REMARK    5  A    between atoms: C_13  and  C_14
REMARK    6  A    between atoms: C_14  and  N_15
REMARK                            x       y       z     vdW  Elec       q    Type
REMARK                         _______ _______ _______ _____ _____    ______ ____
ROOT
ATOM      1  C   UNL     1       2.564   6.558  -0.056  0.00  0.00    +0.000 C 
ATOM      2  O   UNL     1       1.917   7.583  -0.153  0.00  0.00    +0.000 OA
ATOM      3  N   UNL     1       3.909   6.613   0.012  0.00  0.00    +0.000 N 
ATOM      4  H   UNL     1       4.460   5.743   0.014  0.00  0.00    +0.000 HD
ENDROOT
BRANCH   1   7
ATOM      5  C   UNL     1      -0.488   6.103   0.061  0.00  0.00    +0.000 C 
ATOM      6  N   UNL     1       0.527   5.047   0.039  0.00  0.00    +0.000 N 
ATOM      7  C   UNL     1       1.877   5.256  -0.013  0.00  0.00    +0.000 A 
ATOM      8  C   UNL     1       2.468   4.020  -0.017  0.00  0.00    +0.000 A 
ATOM      9  C   UNL     1       1.405   3.095   0.035  0.00  0.00    +0.000 A 
ATOM     10  N   UNL     1       0.281   3.786   0.060  0.00  0.00    +0.000 NA
BRANCH   9  11
ATOM     11  C   UNL     1       1.527   1.624   0.051  0.00  0.00    +0.000 C 
ATOM     12  O   UNL     1       2.625   1.105   0.019  0.00  0.00    +0.000 OA
ATOM     13  O   UNL     1       0.421   0.857   0.103  0.00  0.00    +0.000 OA
ENDBRANCH   9  11
ENDBRANCH   1   7
BRANCH   3  14
ATOM     14  C   UNL     1       4.586   7.910   0.082  0.00  0.00    +0.000 C 
BRANCH  14  15
ATOM     15  C   UNL     1       6.099   7.693   0.151  0.00  0.00    +0.000 C 
BRANCH  15  16
ATOM     16  N   UNL     1       6.778   8.993   0.221  0.00  0.00    +0.000 N 
ATOM     17  H   UNL     1       6.466   9.499   1.063  0.00  0.00    +0.000 HD
ATOM     18  H   UNL     1       6.549   9.547  -0.616  0.00  0.00    +0.000 HD
ATOM     19  H   UNL     1       7.796   8.848   0.268  0.00  0.00    +0.000 HD
ENDBRANCH  15  16
ENDBRANCH  14  15
ENDBRANCH   3  14
TORSDOF 5
ENDMDL
MODEL      982
REMARK  Name = ZINC31439932
REMARK  5 active torsions:
REMARK  status: ('A' for Active; 'I' for Inactive)
REMARK    1  A    between atoms: CG_2  and  CB_6
REMARK    2  A    between atoms: CB_6  and  CA_7
REMARK    3  A    between atoms: CA_7  and  C_8
REMARK    4  A    between atoms: CA_7  and  N_18
REMARK    5  A    between atoms: CA_14  and  C_15
REMARK                            x       y       z     vdW  Elec       q    Type
REMARK                         _______ _______ _______ _____ _____    ______ ____
ROOT
ATOM      1  CA  HIS A   1       1.824  -2.340  -1.466  0.00  0.00    +0.000 C 
ENDROOT
BRANCH   1   2
ATOM      2  C   HIS A   1       2.437  -3.716  -1.492  0.00  0.00    +0.000 C 
ATOM      3  O   HIS A   1       1.726  -4.696  -1.557  0.00  0.00    +0.000 OA
ATOM      4  N   PRO A   2       3.777  -3.858  -1.443  0.00  0.00    +0.000 N 
ATOM      5  CD  PRO A   2       4.755  -2.757  -1.370  0.00  0.00    +0.000 C 
ATOM      6  CG  PRO A   2       6.063  -3.347  -1.947  0.00  0.00    +0.000 C 
ATOM      7  CB  PRO A   2       6.011  -4.804  -1.417  0.00  0.00    +0.000 C 
ATOM      8  CA  PRO A   2       4.505  -5.135  -1.461  0.00  0.00    +0.000 C 
BRANCH   8   9
ATOM      9  C   PRO A   2       4.125  -5.958  -0.258  0.00  0.00    +0.000 C 
ATOM     10  O   PRO A   2       3.326  -5.529   0.541  0.00  0.00    +0.000 OA
ATOM     11  OXT PRO A   2       4.673  -7.169  -0.073  0.00  0.00    +0.000 OA
ENDBRANCH   8   9
ENDBRANCH   1   2
BRANCH   1  12
ATOM     12  N   HIS A   1       0.456  -2.404  -1.997  0.00  0.00    +0.000 N 
ATOM     13  H1  HIS A   1       0.035  -1.463  -1.980  0.00  0.00    +0.000 HD
ATOM     14  H2  HIS A   1      -0.109  -3.042  -1.419  0.00  0.00    +0.000 HD
ATOM     15  H3  HIS A   1       0.479  -2.750  -2.967  0.00  0.00    +0.000 HD
ENDBRANCH   1  12
BRANCH   1  16
ATOM     16  CB  HIS A   1       1.787  -1.825  -0.025  0.00  0.00    +0.000 C 
BRANCH  16  18
ATOM     17  CD2 HIS A   1       0.002  -0.004   0.002  0.00  0.00    +0.000 A 
ATOM     18  CG  HIS A   1       1.288  -0.403  -0.012  0.00  0.00    +0.000 A 
ATOM     19  ND1 HIS A   1       2.055   0.731  -0.014  0.00  0.00    +0.000 NA
ATOM     20  CE1 HIS A   1       1.210   1.784   0.000  0.00  0.00    +0.000 A 
ATOM     21  NE2 HIS A   1      -0.016   1.337   0.009  0.00  0.00    +0.000 N 
ATOM     22  HE2 HIS A   1      -0.864   1.922   0.021  0.00  0.00    +0.000 HD
ENDBRANCH  16  18
ENDBRANCH   1  16
TORSDOF 5
ENDMDL
MODEL      983
REMARK  Name = ZINC03441616
REMARK  10 active torsions:
REMARK  status: ('A' for Active; 'I' for Inactive)
REMARK    1  A    between atoms: C_1  and  C_2
REMARK    2  A    between atoms: C_2  and  N_3
REMARK    3  A    between atoms: N_3  and  C_4
REMARK    4  A    between atoms: N_3  and  C_7
REMARK    5  A    between atoms: C_4  and  C_5
REMARK    6  A    between atoms: C_5  and  O_6
REMARK    7  A    between atoms: C_8  and  C_18
REMARK    8  A    between atoms: C_9  and  C_15
REMARK    9  A    between atoms: C_10  and  C_13
REMARK   10  A    between atoms: C_15  and  C_16
REMARK                            x       y       z     vdW  Elec       q    Type
REMARK                         _______ _______ _______ _____ _____    ______ ____
ROOT
ATOM      1  C   UNL     1       0.021  -0.133  -0.146  0.00  0.00    +0.000 A 
ATOM      2  C   UNL     1       1.153  -0.957   0.009  0.00  0.00    +0.000 A 
ATOM      3  C   UNL     1       2.425  -0.382  -0.045  0.00  0.00    +0.000 A 
ATOM      4  C   UNL     1       2.520   0.996  -0.253  0.00  0.00    +0.000 A 
ATOM      5  C   UNL     1       1.340   1.751  -0.399  0.00  0.00    +0.000 A 
ATOM      6  N   UNL     1       1.423   3.113  -0.605  0.00  0.00    +0.000 N 
ATOM      7  N   UNL     1       0.086   1.215  -0.350  0.00  0.00    +0.000 NA
ATOM      8  H   UNL     1       2.342   3.577  -0.652  0.00  0.00    +0.000 HD
ATOM      9  H   UNL     1       0.562   3.668  -0.713  0.00  0.00    +0.000 HD
ENDROOT
BRANCH   4  10
ATOM     10  C   UNL     1       3.801   1.633  -0.316  0.00  0.00    +0.000 C 
ATOM     11  N   UNL     1       4.818   2.138  -0.366  0.00  0.00    +0.000 NA
ENDBRANCH   4  10
BRANCH   2  12
ATOM     12  C   UNL     1       1.002  -2.365   0.221  0.00  0.00    +0.000 C 
ATOM     13  N   UNL     1       0.881  -3.482   0.389  0.00  0.00    +0.000 NA
ENDBRANCH   2  12
BRANCH   1  14
ATOM     14  N   UNL     1      -1.241  -0.690  -0.094  0.00  0.00    +0.000 N 
BRANCH  14  16
ATOM     15  C   UNL     1      -1.372  -0.507  -2.532  0.00  0.00    +0.000 C 
ATOM     16  C   UNL     1      -1.540  -1.433  -1.326  0.00  0.00    +0.000 C 
ENDBRANCH  14  16
BRANCH  14  17
ATOM     17  C   UNL     1      -2.260   0.336   0.163  0.00  0.00    +0.000 C 
BRANCH  17  18
ATOM     18  C   UNL     1      -3.563  -0.336   0.599  0.00  0.00    +0.000 C 
BRANCH  18  19
ATOM     19  O   UNL     1      -3.360  -1.004   1.846  0.00  0.00    +0.000 OA
ATOM     20  H   UNL     1      -3.083  -0.346   2.532  0.00  0.00    +0.000 HD
ENDBRANCH  18  19
ENDBRANCH  17  18
ENDBRANCH  14  17
ENDBRANCH   1  14
BRANCH   3  21
ATOM     21  C   UNL     1       3.662  -1.227   0.117  0.00  0.00    +0.000 C 
BRANCH  21  22
ATOM     22  C   UNL     1       4.101  -1.712  -1.202  0.00  0.00    +0.000 C 
ATOM     23  N   UNL     1       4.440  -2.086  -2.219  0.00  0.00    +0.000 NA
ENDBRANCH  21  22
ENDBRANCH   3  21
TORSDOF 9
ENDMDL
MODEL      984
REMARK  Name = ZINC04226541
REMARK  8 active torsions:
REMARK  status: ('A' for Active; 'I' for Inactive)
REMARK    1  A    between atoms: C_1  and  C_2
REMARK    2  A    between atoms: C_2  and  CA_3
REMARK    3  A    between atoms: CA_3  and  C_4
REMARK    4  A    between atoms: CA_3  and  N_6
REMARK    5  A    between atoms: C_4  and  O_5
REMARK    6  A    between atoms: N_6  and  C_7
REMARK    7  A    between atoms: C_9  and  C_18
REMARK    8  A    between atoms: C_14  and  C_16
REMARK                            x       y       z     vdW  Elec       q    Type
REMARK                         _______ _______ _______ _____ _____    ______ ____
ROOT
ATOM      1  C   UNL     1       1.215  -0.674  -0.013  0.00  0.00    +0.000 A 
ATOM      2  C   UNL     1       0.002  -0.004   0.002  0.00  0.00    +0.000 A 
ATOM      3  C   UNL     1      -0.017   1.385   0.010  0.00  0.00    +0.000 A 
ATOM      4  C   UNL     1       2.295   1.512  -0.012  0.00  0.00    +0.000 A 
ATOM      5  C   UNL     1       2.401   0.100  -0.020  0.00  0.00    +0.000 A 
ATOM      6  C   UNL     1       3.664  -0.509  -0.036  0.00  0.00    +0.000 A 
ATOM      7  C   UNL     1       4.788   0.256  -0.042  0.00  0.00    +0.000 A 
ATOM      8  C   UNL     1       4.700   1.659  -0.034  0.00  0.00    +0.000 A 
ATOM      9  C   UNL     1       3.466   2.287  -0.019  0.00  0.00    +0.000 A 
ATOM     10  C   UNL     1      -1.343   2.099   0.020  0.00  0.00    +0.000 C 
ATOM     11  N   UNL     1       1.083   2.171   0.003  0.00  0.00    +0.000 N 
ATOM     12  H   UNL     1       1.020   3.199   0.009  0.00  0.00    +0.000 HD
ENDROOT
BRANCH   8  13
ATOM     13  C   UNL     1       5.935   2.470  -0.041  0.00  0.00    +0.000 C 
ATOM     14  O   UNL     1       5.865   3.683  -0.033  0.00  0.00    +0.000 OA
ATOM     15  O   UNL     1       7.138   1.865  -0.056  0.00  0.00    +0.000 OA
ENDBRANCH   8  13
BRANCH   1  16
ATOM     16  N   UNL     1       1.266  -2.060  -0.021  0.00  0.00    +0.000 N 
ATOM     17  H   UNL     1       2.176  -2.542  -0.033  0.00  0.00    +0.000 HD
BRANCH  16  18
ATOM     18  CA  UNL     1       0.025  -2.839  -0.014  0.00  0.00    +0.000 C 
BRANCH  18  20
ATOM     19  C   UNL     1       0.686  -4.071   2.056  0.00  0.00    +0.000 C 
ATOM     20  C   UNL     1       0.293  -4.221   0.585  0.00  0.00    +0.000 C 
ENDBRANCH  18  20
BRANCH  18  21
ATOM     21  C   UNL     1      -0.487  -2.995  -1.448  0.00  0.00    +0.000 C 
BRANCH  21  22
ATOM     22  O   UNL     1       0.443  -3.773  -2.204  0.00  0.00    +0.000 OA
ATOM     23  H   UNL     1       0.540  -4.667  -1.789  0.00  0.00    +0.000 HD
ENDBRANCH  21  22
ENDBRANCH  18  21
ENDBRANCH  16  18
ENDBRANCH   1  16
TORSDOF 6
ENDMDL
MODEL      985
REMARK  Name = ZINC20841549
REMARK  7 active torsions:
REMARK  status: ('A' for Active; 'I' for Inactive)
REMARK    1  A    between atoms: C_1  and  C_2
REMARK    2  A    between atoms: N_4  and  N_5
REMARK    3  A    between atoms: C_6  and  C_8
REMARK    4  A    between atoms: C_8  and  S_9
REMARK    5  A    between atoms: S_9  and  C_10
REMARK    6  A    between atoms: C_13  and  C_16
REMARK    7  A    between atoms: N_14  and  N_15
REMARK                            x       y       z     vdW  Elec       q    Type
REMARK                         _______ _______ _______ _____ _____    ______ ____
ROOT
ATOM      1  C   UNL     1      -1.749   3.120   2.718  0.00  0.00    +0.000 A 
ATOM      2  N   UNL     1      -1.606   1.899   3.178  0.00  0.00    +0.000 NA
ATOM      3  N   UNL     1      -1.005   1.171   2.305  0.00  0.00    +0.000 NA
ATOM      4  C   UNL     1      -0.722   1.881   1.250  0.00  0.00    +0.000 A 
ATOM      5  N   UNL     1      -1.189   3.147   1.473  0.00  0.00    +0.000 N 
ENDROOT
BRANCH   4   6
ATOM      6  C   UNL     1      -0.017   1.395   0.010  0.00  0.00    +0.000 C 
ATOM      7  F   UNL     1       0.002  -0.004   0.002  0.00  0.00    +0.000 F 
ATOM      8  F   UNL     1       1.296   1.879  -0.000  0.00  0.00    +0.000 F 
ATOM      9  F   UNL     1      -0.694   1.858  -1.124  0.00  0.00    +0.000 F 
ENDBRANCH   4   6
BRANCH   5  10
ATOM     10  N   UNL     1      -1.111   4.216   0.626  0.00  0.00    +0.000 N 
ATOM     11  H   UNL     1      -1.526   5.087   0.987  0.00  0.00    +0.000 HD
ATOM     12  H   UNL     1      -0.674   4.175  -0.306  0.00  0.00    +0.000 HD
ENDBRANCH   5  10
BRANCH   1  13
ATOM     13  S   UNL     1      -2.518   4.470   3.550  0.00  0.00    +0.000 S 
BRANCH  13  14
ATOM     14  C   UNL     1      -2.989   3.658   5.097  0.00  0.00    +0.000 C 
BRANCH  14  16
ATOM     15  N   UNL     1      -4.126   4.266   7.208  0.00  0.00    +0.000 N 
ATOM     16  C   UNL     1      -3.684   4.650   5.994  0.00  0.00    +0.000 C 
ATOM     17  O   UNL     1      -3.844   5.793   5.623  0.00  0.00    +0.000 OA
ATOM     18  H   UNL     1      -3.990   3.295   7.523  0.00  0.00    +0.000 HD
BRANCH  15  22
ATOM     19  C   UNL     1      -5.910   5.798  10.152  0.00  0.00    +0.000 C 
ATOM     20  C   UNL     1      -5.215   4.806   9.255  0.00  0.00    +0.000 C 
ATOM     21  O   UNL     1      -5.054   3.662   9.626  0.00  0.00    +0.000 OA
ATOM     22  N   UNL     1      -4.772   5.189   8.041  0.00  0.00    +0.000 N 
ATOM     23  H   UNL     1      -4.909   6.160   7.727  0.00  0.00    +0.000 HD
ENDBRANCH  15  22
ENDBRANCH  14  16
ENDBRANCH  13  14
ENDBRANCH   1  13
TORSDOF 6
ENDMDL
MODEL      986
REMARK  Name = ZINC22127001
REMARK  4 active torsions:
REMARK  status: ('A' for Active; 'I' for Inactive)
REMARK    1  A    between atoms: C_1  and  O_2
REMARK    2  A    between atoms: O_2  and  C_3
REMARK    3  A    between atoms: C_3  and  C_5
REMARK    4  A    between atoms: C_5  and  C_6
REMARK                            x       y       z     vdW  Elec       q    Type
REMARK                         _______ _______ _______ _____ _____    ______ ____
ROOT
ATOM      1  C   UNL     1      -0.965  -4.868   0.839  0.00  0.00    +0.000 C 
ATOM      2  C   UNL     1      -2.134  -4.608  -0.100  0.00  0.00    +0.000 C 
ATOM      3  S   UNL     1      -2.662  -2.886  -0.021  0.00  0.00    +0.000 S 
ATOM      4  C   UNL     1      -1.174  -2.074   0.105  0.00  0.00    +0.000 C 
ATOM      5  N   UNL     1      -0.020  -2.654   0.282  0.00  0.00    +0.000 NA
ATOM      6  C   UNL     1       0.168  -3.925   0.562  0.00  0.00    +0.000 C 
ATOM      7  O   UNL     1       1.305  -4.354   0.593  0.00  0.00    +0.000 OA
ATOM      8  N   UNL     1      -1.189  -0.708   0.009  0.00  0.00    +0.000 N 
ATOM      9  C   UNL     1      -0.001  -0.005  -0.009  0.00  0.00    +0.000 C 
ATOM     10  N   UNL     1       1.133  -0.644  -0.044  0.00  0.00    +0.000 N 
ATOM     11  N   UNL     1      -0.015   1.369   0.009  0.00  0.00    +0.000 N 
ATOM     12  H   UNL     1      -2.086  -0.205  -0.049  0.00  0.00    +0.000 HD
ATOM     13  H   UNL     1       1.144  -1.673  -0.058  0.00  0.00    +0.000 HD
ATOM     14  H   UNL     1       2.020  -0.119  -0.058  0.00  0.00    +0.000 HD
ATOM     15  H   UNL     1      -0.912   1.875   0.036  0.00  0.00    +0.000 HD
ATOM     16  H   UNL     1       0.871   1.894  -0.005  0.00  0.00    +0.000 HD
ENDROOT
BRANCH   1  17
ATOM     17  C   UNL     1      -1.431  -4.683   2.284  0.00  0.00    +0.000 C 
BRANCH  17  18
ATOM     18  C   UNL     1      -0.315  -5.057   3.224  0.00  0.00    +0.000 C 
ATOM     19  O   UNL     1       0.745  -5.434   2.783  0.00  0.00    +0.000 OA
BRANCH  18  21
ATOM     20  C   UNL     1       0.622  -5.349   5.396  0.00  0.00    +0.000 C 
ATOM     21  O   UNL     1      -0.497  -4.972   4.551  0.00  0.00    +0.000 OA
ENDBRANCH  18  21
ENDBRANCH  17  18
ENDBRANCH   1  17
TORSDOF 3
ENDMDL
MODEL      987
REMARK  Name = ZINC01865821
REMARK  5 active torsions:
REMARK  status: ('A' for Active; 'I' for Inactive)
REMARK    1  A    between atoms: C_1  and  N_2
REMARK    2  A    between atoms: N_13  and  C_14
REMARK    3  A    between atoms: C_14  and  C_15
REMARK    4  A    between atoms: C_15  and  C_16
REMARK    5  A    between atoms: C_16  and  N_17
REMARK                            x       y       z     vdW  Elec       q    Type
REMARK                         _______ _______ _______ _____ _____    ______ ____
ROOT
ATOM      1  C   UNL     1      -1.295   2.057   0.019  0.00  0.00    +0.000 C 
ATOM      2  N   UNL     1      -0.016   1.342   0.009  0.00  0.00    +0.000 N 
ATOM      3  C   UNL     1       1.174   2.052   0.002  0.00  0.00    +0.000 A 
ATOM      4  C   UNL     1       2.373   1.349  -0.014  0.00  0.00    +0.000 A 
ATOM      5  C   UNL     1       2.345  -0.056  -0.021  0.00  0.00    +0.000 A 
ATOM      6  O   UNL     1       3.385  -0.693  -0.035  0.00  0.00    +0.000 OA
ATOM      7  N   UNL     1       1.156  -0.693  -0.013  0.00  0.00    +0.000 N 
ATOM      8  C   UNL     1       0.002  -0.004   0.002  0.00  0.00    +0.000 A 
ATOM      9  O   UNL     1      -1.051  -0.612   0.008  0.00  0.00    +0.000 OA
ATOM     10  N   UNL     1       3.384   2.301  -0.019  0.00  0.00    +0.000 N 
ATOM     11  C   UNL     1       2.777   3.517  -0.005  0.00  0.00    +0.000 A 
ATOM     12  N   UNL     1       1.469   3.353   0.006  0.00  0.00    +0.000 NA
ATOM     13  N   UNL     1       3.426   4.731  -0.005  0.00  0.00    +0.000 N 
ATOM     14  H   UNL     1       1.132  -1.723  -0.018  0.00  0.00    +0.000 HD
ATOM     15  H   UNL     1       4.398   2.121  -0.031  0.00  0.00    +0.000 HD
ATOM     16  H   UNL     1       2.882   5.606   0.004  0.00  0.00    +0.000 HD
ENDROOT
BRANCH  13  17
ATOM     17  C   UNL     1       4.890   4.778  -0.018  0.00  0.00    +0.000 C 
BRANCH  17  18
ATOM     18  C   UNL     1       5.353   6.236  -0.015  0.00  0.00    +0.000 C 
BRANCH  18  19
ATOM     19  C   UNL     1       6.882   6.286  -0.029  0.00  0.00    +0.000 C 
BRANCH  19  20
ATOM     20  N   UNL     1       7.326   7.682  -0.026  0.00  0.00    +0.000 N 
ATOM     21  C   UNL     1       7.566   8.460  -1.126  0.00  0.00    +0.000 A 
ATOM     22  C   UNL     1       7.949   9.669  -0.672  0.00  0.00    +0.000 A 
ATOM     23  N   UNL     1       7.951   9.627   0.669  0.00  0.00    +0.000 NA
ATOM     24  C   UNL     1       7.579   8.440   1.063  0.00  0.00    +0.000 A 
ENDBRANCH  19  20
ENDBRANCH  18  19
ENDBRANCH  17  18
ENDBRANCH  13  17
TORSDOF 4
ENDMDL
MODEL      988
REMARK  Name = ZINC20214191
REMARK  5 active torsions:
REMARK  status: ('A' for Active; 'I' for Inactive)
REMARK    1  A    between atoms: C_5  and  C_6
REMARK    2  A    between atoms: N_8  and  CA_9
REMARK    3  A    between atoms: CA_9  and  CB_10
REMARK    4  A    between atoms: CA_9  and  C_16
REMARK    5  A    between atoms: CB_10  and  CG_11
REMARK                            x       y       z     vdW  Elec       q    Type
REMARK                         _______ _______ _______ _____ _____    ______ ____
ROOT
ATOM      1  C   UNK A   1       1.757   3.210   0.003  0.00  0.00    +0.000 C 
ATOM      2  O   UNK A   1       0.949   4.119   0.015  0.00  0.00    +0.000 OA
ATOM      3  N   HIS A   2       3.077   3.482  -0.009  0.00  0.00    +0.000 N 
ATOM      4  H   HIS A   2       3.762   2.713  -0.019  0.00  0.00    +0.000 HD
ENDROOT
BRANCH   1   9
ATOM      5  C   UNK A   1      -0.017   1.395   0.010  0.00  0.00    +0.000 A 
ATOM      6  C   UNK A   1       0.002  -0.004   0.002  0.00  0.00    +0.000 A 
ATOM      7  C   UNK A   1       1.298  -0.402  -0.013  0.00  0.00    +0.000 A 
ATOM      8  N   UNK A   1       2.093   0.696  -0.014  0.00  0.00    +0.000 N 
ATOM      9  C   UNK A   1       1.295   1.818  -0.001  0.00  0.00    +0.000 A 
ATOM     10 CL   UNK A   1      -1.387  -1.045   0.010  0.00  0.00    +0.000 Cl
ATOM     11  H   UNK A   1       3.123   0.692  -0.024  0.00  0.00    +0.000 HD
ENDBRANCH   1   9
BRANCH   3  12
ATOM     12  CA  HIS A   2       3.538   4.873  -0.006  0.00  0.00    +0.000 C 
BRANCH  12  13
ATOM     13  C   HIS A   2       3.592   5.381   1.412  0.00  0.00    +0.000 C 
ATOM     14  O   HIS A   2       3.278   4.656   2.326  0.00  0.00    +0.000 OA
ATOM     15  OXT HIS A   2       3.990   6.639   1.659  0.00  0.00    +0.000 OA
ENDBRANCH  12  13
BRANCH  12  16
ATOM     16  CB  HIS A   2       4.934   4.949  -0.628  0.00  0.00    +0.000 C 
BRANCH  16  17
ATOM     17  CG  HIS A   2       4.858   4.557  -2.081  0.00  0.00    +0.000 A 
ATOM     18  CD2 HIS A   2       5.283   5.296  -3.123  0.00  0.00    +0.000 A 
ATOM     19  NE2 HIS A   2       5.029   4.569  -4.255  0.00  0.00    +0.000 NA
ATOM     20  CE1 HIS A   2       4.448   3.414  -3.865  0.00  0.00    +0.000 A 
ATOM     21  ND1 HIS A   2       4.349   3.414  -2.564  0.00  0.00    +0.000 N 
ATOM     22  HD1 HIS A   2       3.943   2.655  -1.997  0.00  0.00    +0.000 HD
ENDBRANCH  16  17
ENDBRANCH  12  16
ENDBRANCH   3  12
TORSDOF 5
ENDMDL
MODEL      989
REMARK  Name = ZINC06509720
REMARK  8 active torsions:
REMARK  status: ('A' for Active; 'I' for Inactive)
REMARK    1  A    between atoms: C_1  and  N_22
REMARK    2  A    between atoms: C_2  and  C_3
REMARK    3  A    between atoms: C_2  and  N_22
REMARK    4  A    between atoms: C_3  and  C_5
REMARK    5  A    between atoms: C_6  and  N_21
REMARK    6  A    between atoms: N_7  and  C_14
REMARK    7  A    between atoms: N_10  and  C_13
REMARK    8  A    between atoms: C_14  and  C_15
REMARK                            x       y       z     vdW  Elec       q    Type
REMARK                         _______ _______ _______ _____ _____    ______ ____
ROOT
ATOM      1  C   UNL     1       1.120   2.057  -0.003  0.00  0.00    +0.000 A 
ATOM      2  C   UNL     1      -0.056   1.287  -0.009  0.00  0.00    +0.000 A 
ATOM      3  N   UNL     1       0.046  -0.075  -0.011  0.00  0.00    +0.000 N 
ATOM      4  C   UNL     1       1.242  -0.684  -0.007  0.00  0.00    +0.000 A 
ATOM      5  O   UNL     1       1.280  -1.899  -0.010  0.00  0.00    +0.000 OA
ATOM      6  N   UNL     1       2.399  -0.001  -0.002  0.00  0.00    +0.000 N 
ATOM      7  C   UNL     1       2.405   1.348   0.000  0.00  0.00    +0.000 A 
ATOM      8  O   UNL     1       3.455   1.964   0.004  0.00  0.00    +0.000 OA
ATOM      9  C   UNL     1       3.669  -0.731   0.002  0.00  0.00    +0.000 C 
ENDROOT
BRANCH   2  10
ATOM     10  N   UNL     1      -1.277   1.888  -0.018  0.00  0.00    +0.000 N 
ATOM     11  H   UNL     1      -1.337   2.917  -0.021  0.00  0.00    +0.000 HD
ATOM     12  H   UNL     1      -2.136   1.320  -0.022  0.00  0.00    +0.000 HD
ENDBRANCH   2  10
BRANCH   1  13
ATOM     13  C   UNL     1       1.066   3.468  -0.002  0.00  0.00    +0.000 C 
ATOM     14  O   UNL     1      -0.003   4.035   0.101  0.00  0.00    +0.000 OA
BRANCH  13  15
ATOM     15  C   UNL     1       2.336   4.270  -0.127  0.00  0.00    +0.000 C 
BRANCH  15  17
ATOM     16  C   UNL     1       3.231   6.518  -0.220  0.00  0.00    +0.000 C 
ATOM     17  N   UNL     1       2.005   5.707  -0.099  0.00  0.00    +0.000 N 
ATOM     18  H   UNL     1       1.534   5.931   0.790  0.00  0.00    +0.000 HD
ATOM     19  H   UNL     1       1.370   5.926  -0.880  0.00  0.00    +0.000 HD
ENDBRANCH  15  17
ENDBRANCH  13  15
ENDBRANCH   1  13
BRANCH   3  20
ATOM     20  C   UNL     1      -1.173  -0.887  -0.016  0.00  0.00    +0.000 C 
BRANCH  20  21
ATOM     21  C   UNL     1      -1.586  -1.163  -1.439  0.00  0.00    +0.000 A 
ATOM     22  C   UNL     1      -2.444  -0.296  -2.090  0.00  0.00    +0.000 A 
ATOM     23  C   UNL     1      -2.819  -0.546  -3.397  0.00  0.00    +0.000 A 
ATOM     24  C   UNL     1      -2.345  -1.669  -4.049  0.00  0.00    +0.000 A 
ATOM     25  C   UNL     1      -1.492  -2.539  -3.396  0.00  0.00    +0.000 A 
ATOM     26  C   UNL     1      -1.112  -2.286  -2.091  0.00  0.00    +0.000 A 
ENDBRANCH  20  21
ENDBRANCH   3  20
TORSDOF 6
ENDMDL
MODEL      990
REMARK  Name = ZINC19508865
REMARK  7 active torsions:
REMARK  status: ('A' for Active; 'I' for Inactive)
REMARK    1  A    between atoms: C_1  and  S_2
REMARK    2  A    between atoms: S_2  and  C_5
REMARK    3  A    between atoms: C_5  and  C_6
REMARK    4  A    between atoms: C_6  and  C_7
REMARK    5  A    between atoms: C_7  and  C_8
REMARK    6  A    between atoms: C_7  and  N_17
REMARK    7  A    between atoms: N_10  and  C_11
REMARK                            x       y       z     vdW  Elec       q    Type
REMARK                         _______ _______ _______ _____ _____    ______ ____
ROOT
ATOM      1  C   UNL     1       4.872   1.154  -0.253  0.00  0.00    +0.000 C 
ENDROOT
BRANCH   1   2
ATOM      2  N   UNL     1       5.867   2.072  -0.823  0.00  0.00    +0.000 N 
ATOM      3  H   UNL     1       6.771   1.588  -0.912  0.00  0.00    +0.000 HD
ATOM      4  H   UNL     1       5.975   2.889  -0.205  0.00  0.00    +0.000 HD
ATOM      5  H   UNL     1       5.553   2.385  -1.753  0.00  0.00    +0.000 HD
ENDBRANCH   1   2
BRANCH   1   6
ATOM      6  C   UNL     1       3.549   1.863  -0.123  0.00  0.00    +0.000 C 
ATOM      7  O   UNL     1       3.509   3.075  -0.117  0.00  0.00    +0.000 OA
ATOM      8  N   UNL     1       2.410   1.151  -0.014  0.00  0.00    +0.000 N 
ATOM      9  H   UNL     1       2.450   0.124   0.062  0.00  0.00    +0.000 HD
BRANCH   8  10
ATOM     10  C   UNL     1       1.173   1.805  -0.005  0.00  0.00    +0.000 A 
ATOM     11  C   UNL     1       0.988   2.976  -0.736  0.00  0.00    +0.000 A 
ATOM     12  C   UNL     1      -0.252   3.591  -0.691  0.00  0.00    +0.000 A 
ATOM     13  C   UNL     1      -1.262   3.020   0.062  0.00  0.00    +0.000 A 
ATOM     14  N   UNL     1      -1.054   1.910   0.743  0.00  0.00    +0.000 NA
ATOM     15  C   UNL     1       0.113   1.297   0.733  0.00  0.00    +0.000 A 
ENDBRANCH   8  10
ENDBRANCH   1   6
BRANCH   1  16
ATOM     16  C   UNL     1       5.340   0.690   1.128  0.00  0.00    +0.000 C 
BRANCH  16  17
ATOM     17  C   UNL     1       6.618  -0.138   0.983  0.00  0.00    +0.000 C 
BRANCH  17  19
ATOM     18  C   UNL     1       8.672  -1.634   2.239  0.00  0.00    +0.000 C 
ATOM     19  S   UNL     1       7.172  -0.688   2.620  0.00  0.00    +0.000 S 
ATOM     20  O   UNL     1       7.543   0.456   3.377  0.00  0.00    +0.000 OA
ATOM     21  O   UNL     1       6.200  -1.580   3.147  0.00  0.00    +0.000 OA
ENDBRANCH  17  19
ENDBRANCH  16  17
ENDBRANCH   1  16
TORSDOF 6
ENDMDL
MODEL      991
REMARK  Name = ZINC04656693
REMARK  7 active torsions:
REMARK  status: ('A' for Active; 'I' for Inactive)
REMARK    1  A    between atoms: C_1  and  O_2
REMARK    2  A    between atoms: O_2  and  C_3
REMARK    3  A    between atoms: C_6  and  N_9
REMARK    4  A    between atoms: C_10  and  C_11
REMARK    5  A    between atoms: C_11  and  N_12
REMARK    6  A    between atoms: N_15  and  N_16
REMARK    7  A    between atoms: N_16  and  C_17
REMARK                            x       y       z     vdW  Elec       q    Type
REMARK                         _______ _______ _______ _____ _____    ______ ____
ROOT
ATOM      1  N   UNL     1       2.410  -2.433   4.300  0.00  0.00    +0.000 N 
ATOM      2  C   UNL     1       3.665  -2.193   4.552  0.00  0.00    +0.000 C 
ATOM      3  N   UNL     1       4.305  -2.875   5.552  0.00  0.00    +0.000 N 
ATOM      4  H   UNL     1       1.927  -3.204   4.782  0.00  0.00    +0.000 HD
ATOM      5  H   UNL     1       5.272  -2.628   5.806  0.00  0.00    +0.000 HD
ENDROOT
BRANCH   1   9
ATOM      6  C   UNL     1       0.364  -0.092   1.561  0.00  0.00    +0.000 A 
ATOM      7  C   UNL     1       0.993   0.502   2.646  0.00  0.00    +0.000 A 
ATOM      8  C   UNL     1       1.670  -0.274   3.563  0.00  0.00    +0.000 A 
ATOM      9  C   UNL     1       1.732  -1.657   3.393  0.00  0.00    +0.000 A 
ATOM     10  C   UNL     1       1.104  -2.250   2.298  0.00  0.00    +0.000 A 
ATOM     11  C   UNL     1       0.423  -1.468   1.388  0.00  0.00    +0.000 A 
BRANCH   6  13
ATOM     12  C   UNL     1      -0.329   2.085   0.901  0.00  0.00    +0.000 C 
ATOM     13  O   UNL     1      -0.307   0.676   0.662  0.00  0.00    +0.000 OA
ENDBRANCH   6  13
ENDBRANCH   1   9
BRANCH   3  14
ATOM     14  N   UNL     1       3.644  -3.907   6.230  0.00  0.00    +0.000 N 
ATOM     15  H   UNL     1       2.676  -4.154   5.976  0.00  0.00    +0.000 HD
BRANCH  14  16
ATOM     16  C   UNL     1       4.287  -4.593   7.237  0.00  0.00    +0.000 C 
ATOM     17  C   UNL     1       3.651  -5.587   7.889  0.00  0.00    +0.000 C 
ATOM     18  C   UNL     1       4.212  -6.397   8.976  0.00  0.00    +0.000 A 
ATOM     19  C   UNL     1       5.439  -6.427   9.635  0.00  0.00    +0.000 A 
ATOM     20  C   UNL     1       5.649  -7.341  10.645  0.00  0.00    +0.000 A 
ATOM     21  C   UNL     1       4.649  -8.233  11.011  0.00  0.00    +0.000 A 
ATOM     22  C   UNL     1       3.428  -8.221  10.373  0.00  0.00    +0.000 A 
ATOM     23  C   UNL     1       3.193  -7.305   9.348  0.00  0.00    +0.000 A 
ATOM     24  C   UNL     1       2.051  -7.015   8.477  0.00  0.00    +0.000 C 
ATOM     25  O   UNL     1       0.980  -7.592   8.497  0.00  0.00    +0.000 OA
ATOM     26  O   UNL     1       2.380  -6.004   7.656  0.00  0.00    +0.000 OA
ENDBRANCH  14  16
ENDBRANCH   3  14
BRANCH   2  27
ATOM     27  C   UNL     1       4.413  -1.165   3.743  0.00  0.00    +0.000 C 
BRANCH  27  28
ATOM     28  N   UNL     1       5.831  -1.193   4.109  0.00  0.00    +0.000 N 
ATOM     29  O   UNL     1       6.428  -2.254   4.152  0.00  0.00    +0.000 OA
ATOM     30  O   UNL     1       6.413  -0.156   4.370  0.00  0.00    +0.000 OA
ENDBRANCH  27  28
ENDBRANCH   2  27
TORSDOF 6
ENDMDL
MODEL      992
REMARK  Name = ZINC01846065
REMARK  11 active torsions:
REMARK  status: ('A' for Active; 'I' for Inactive)
REMARK    1  A    between atoms: C_1  and  N_2
REMARK    2  A    between atoms: N_2  and  S_3
REMARK    3  A    between atoms: S_3  and  C_6
REMARK    4  A    between atoms: C_8  and  C_16
REMARK    5  A    between atoms: C_9  and  O_14
REMARK    6  A    between atoms: C_10  and  O_12
REMARK    7  A    between atoms: O_12  and  C_13
REMARK    8  A    between atoms: O_14  and  C_15
REMARK    9  A    between atoms: N_18  and  C_19
REMARK   10  A    between atoms: C_19  and  C_20
REMARK   11  A    between atoms: C_24  and  N_25
REMARK                            x       y       z     vdW  Elec       q    Type
REMARK                         _______ _______ _______ _____ _____    ______ ____
ROOT
ATOM      1  C   UNL     1       1.588   1.796   3.346  0.00  0.00    +0.000 A 
ATOM      2  C   UNL     1       2.707   1.131   2.894  0.00  0.00    +0.000 A 
ATOM      3  C   UNL     1       3.972   1.704   3.054  0.00  0.00    +0.000 A 
ATOM      4  C   UNL     1       4.095   2.948   3.684  0.00  0.00    +0.000 A 
ATOM      5  C   UNL     1       2.955   3.605   4.139  0.00  0.00    +0.000 A 
ATOM      6  C   UNL     1       1.709   3.027   3.969  0.00  0.00    +0.000 A 
ENDROOT
BRANCH   3   7
ATOM      7  C   UNL     1       5.173   0.998   2.567  0.00  0.00    +0.000 C 
ATOM      8  O   UNL     1       6.272   1.497   2.712  0.00  0.00    +0.000 OA
ATOM      9  N   UNL     1       5.051  -0.199   1.961  0.00  0.00    +0.000 N 
ATOM     10  H   UNL     1       4.120  -0.622   1.838  0.00  0.00    +0.000 HD
BRANCH   9  11
ATOM     11  C   UNL     1       6.243  -0.900   1.477  0.00  0.00    +0.000 C 
BRANCH  11  12
ATOM     12  C   UNL     1       5.845  -2.281   0.951  0.00  0.00    +0.000 C 
ATOM     13  C   UNL     1       5.329  -3.156   2.112  0.00  0.00    +0.000 C 
ATOM     14  C   UNL     1       5.899  -4.559   1.772  0.00  0.00    +0.000 C 
ATOM     15  C   UNL     1       7.271  -4.197   1.152  0.00  0.00    +0.000 C 
ATOM     16  C   UNL     1       8.200  -2.080   0.405  0.00  0.00    +0.000 C 
ATOM     17  N   UNL     1       7.010  -2.970   0.373  0.00  0.00    +0.000 N 
ATOM     18  H   UNL     1       6.816  -3.216  -0.608  0.00  0.00    +0.000 HD
ENDBRANCH  11  12
ENDBRANCH   9  11
ENDBRANCH   3   7
BRANCH   1  19
ATOM     19  S   UNL     1      -0.005   1.072   3.136  0.00  0.00    +0.000 S 
ATOM     20  O   UNL     1      -0.842   1.637   4.136  0.00  0.00    +0.000 OA
ATOM     21  O   UNL     1       0.198  -0.329   3.015  0.00  0.00    +0.000 OA
BRANCH  19  23
ATOM     22  C   UNL     1       0.079   1.199   0.436  0.00  0.00    +0.000 C 
ATOM     23  N   UNL     1      -0.591   1.594   1.678  0.00  0.00    +0.000 NA
ATOM     24  H   UNL     1      -1.427   2.195   1.644  0.00  0.00    +0.000 HD
ENDBRANCH  19  23
ENDBRANCH   1  19
BRANCH   5  25
ATOM     25  O   UNL     1       3.066   4.814   4.752  0.00  0.00    +0.000 OA
ATOM     26  C   UNL     1       1.855   5.431   5.194  0.00  0.00    +0.000 C 
ENDBRANCH   5  25
BRANCH   4  27
ATOM     27  O   UNL     1       5.319   3.512   3.849  0.00  0.00    +0.000 OA
ATOM     28  C   UNL     1       6.019   3.200   5.055  0.00  0.00    +0.000 C 
ENDBRANCH   4  27
TORSDOF 7
ENDMDL
MODEL      993
REMARK  Name = ZINC17480998
REMARK  7 active torsions:
REMARK  status: ('A' for Active; 'I' for Inactive)
REMARK    1  A    between atoms: C_1  and  O_2
REMARK    2  A    between atoms: O_2  and  C_3
REMARK    3  A    between atoms: C_8  and  N_9
REMARK    4  A    between atoms: C_12  and  C_18
REMARK    5  A    between atoms: C_19  and  C_20
REMARK    6  A    between atoms: C_19  and  N_25
REMARK    7  A    between atoms: C_20  and  N_26
REMARK                            x       y       z     vdW  Elec       q    Type
REMARK                         _______ _______ _______ _____ _____    ______ ____
ROOT
ATOM      1  N   UNL     1      -0.032   3.693  -0.418  0.00  0.00    +0.000 N 
ATOM      2  C   UNL     1       0.343   4.340  -1.542  0.00  0.00    +0.000 C 
ATOM      3  O   UNL     1       0.519   3.742  -2.582  0.00  0.00    +0.000 OA
ATOM      4  C   UNL     1       0.532   5.842  -1.456  0.00  0.00    +0.000 C 
ATOM      5  C   UNL     1       0.288   6.472  -0.098  0.00  0.00    +0.000 C 
ATOM      6  O   UNL     1       0.418   7.665   0.074  0.00  0.00    +0.000 OA
ATOM      7  N   UNL     1      -0.078   5.655   0.912  0.00  0.00    +0.000 N 
ATOM      8  C   UNL     1      -0.225   4.337   0.739  0.00  0.00    +0.000 C 
ATOM      9  O   UNL     1      -0.558   3.676   1.703  0.00  0.00    +0.000 OA
ATOM     10  H   UNL     1      -0.250   6.059   1.844  0.00  0.00    +0.000 HD
ENDROOT
BRANCH   1  16
ATOM     11  C   UNL     1       0.845   1.445  -0.200  0.00  0.00    +0.000 A 
ATOM     12  C   UNL     1       0.653   0.073  -0.246  0.00  0.00    +0.000 A 
ATOM     13  C   UNL     1      -0.593  -0.441  -0.552  0.00  0.00    +0.000 A 
ATOM     14  C   UNL     1      -1.651   0.410  -0.813  0.00  0.00    +0.000 A 
ATOM     15  C   UNL     1      -1.468   1.780  -0.769  0.00  0.00    +0.000 A 
ATOM     16  C   UNL     1      -0.221   2.303  -0.463  0.00  0.00    +0.000 A 
BRANCH  11  18
ATOM     17  C   UNL     1       3.115   1.013   0.359  0.00  0.00    +0.000 C 
ATOM     18  O   UNL     1       2.070   1.952   0.101  0.00  0.00    +0.000 OA
ENDBRANCH  11  18
ENDBRANCH   1  16
BRANCH   4  19
ATOM     19  C   UNL     1       1.946   6.157  -1.871  0.00  0.00    +0.000 C 
ATOM     20  N   UNL     1       2.111   6.834  -2.985  0.00  0.00    +0.000 NA
BRANCH  20  21
ATOM     21  C   UNL     1       3.495   7.181  -3.457  0.00  0.00    +0.000 C 
BRANCH  21  22
ATOM     22  C   UNL     1       3.750   6.464  -4.785  0.00  0.00    +0.000 C 
BRANCH  22  27
ATOM     23  C   UNL     1       6.089   6.752  -4.226  0.00  0.00    +0.000 C 
ATOM     24  C   UNL     1       7.440   7.216  -4.774  0.00  0.00    +0.000 C 
ATOM     25  C   UNL     1       6.809   6.451  -6.982  0.00  0.00    +0.000 C 
ATOM     26  C   UNL     1       5.457   5.987  -6.434  0.00  0.00    +0.000 C 
ATOM     27  N   UNL     1       5.079   6.856  -5.301  0.00  0.00    +0.000 NA
ATOM     28  N   UNL     1       7.827   6.367  -5.917  0.00  0.00    +0.000 N 
ATOM     29  H   UNL     1       8.734   6.685  -6.287  0.00  0.00    +0.000 HD
ATOM     30  H   UNL     1       7.914   5.390  -5.604  0.00  0.00    +0.000 HD
ENDBRANCH  22  27
ENDBRANCH  21  22
ENDBRANCH  20  21
ENDBRANCH   4  19
TORSDOF 6
ENDMDL
MODEL      994
REMARK  Name = ZINC02631807
REMARK  13 active torsions:
REMARK  status: ('A' for Active; 'I' for Inactive)
REMARK    1  A    between atoms: C_1  and  C_2
REMARK    2  A    between atoms: C_3  and  O_27
REMARK    3  A    between atoms: C_4  and  C_10
REMARK    4  A    between atoms: C_5  and  C_8
REMARK    5  A    between atoms: C_8  and  O_9
REMARK    6  A    between atoms: N_11  and  N_12
REMARK    7  A    between atoms: C_13  and  C_15
REMARK    8  A    between atoms: C_17  and  O_25
REMARK    9  A    between atoms: C_18  and  O_23
REMARK   10  A    between atoms: C_19  and  O_21
REMARK   11  A    between atoms: O_21  and  C_22
REMARK   12  A    between atoms: O_23  and  C_24
REMARK   13  A    between atoms: O_25  and  C_26
REMARK                            x       y       z     vdW  Elec       q    Type
REMARK                         _______ _______ _______ _____ _____    ______ ____
ROOT
ATOM      1  N   UNL     1      -0.011   0.966   0.007  0.00  0.00    +0.000 N 
ATOM      2  C   UNL     1       1.147   1.655   0.000  0.00  0.00    +0.000 C 
ATOM      3  O   UNL     1       1.130   2.872   0.007  0.00  0.00    +0.000 OA
ATOM      4  H   UNL     1       0.003  -0.064   0.006  0.00  0.00    +0.000 HD
ENDROOT
BRANCH   2   5
ATOM      5  C   UNL     1       2.434   0.935  -0.016  0.00  0.00    +0.000 A 
ATOM      6  C   UNL     1       2.455  -0.462  -0.018  0.00  0.00    +0.000 A 
ATOM      7  C   UNL     1       3.663  -1.134  -0.038  0.00  0.00    +0.000 A 
ATOM      8  C   UNL     1       4.858  -0.420  -0.046  0.00  0.00    +0.000 A 
ATOM      9  C   UNL     1       4.841   0.972  -0.038  0.00  0.00    +0.000 A 
ATOM     10  C   UNL     1       3.636   1.649  -0.024  0.00  0.00    +0.000 A 
BRANCH   9  11
ATOM     11  O   UNL     1       6.010   1.666  -0.045  0.00  0.00    +0.000 OA
ATOM     12  C   UNL     1       5.918   3.092  -0.037  0.00  0.00    +0.000 C 
ENDBRANCH   9  11
BRANCH   8  13
ATOM     13  O   UNL     1       6.044  -1.084  -0.060  0.00  0.00    +0.000 OA
ATOM     14  C   UNL     1       6.622  -1.407   1.206  0.00  0.00    +0.000 C 
ENDBRANCH   8  13
BRANCH   7  15
ATOM     15  O   UNL     1       3.683  -2.494  -0.046  0.00  0.00    +0.000 OA
ATOM     16  C   UNL     1       2.420  -3.162  -0.038  0.00  0.00    +0.000 C 
ENDBRANCH   7  15
ENDBRANCH   2   5
BRANCH   1  18
ATOM     17  C   UNL     1      -2.349   0.986   0.018  0.00  0.00    +0.000 C 
ATOM     18  N   UNL     1      -1.234   1.650   0.017  0.00  0.00    +0.000 NA
BRANCH  17  22
ATOM     19  C   UNL     1      -4.976   5.247   0.054  0.00  0.00    +0.000 C 
ATOM     20  C   UNL     1      -4.911   3.741   0.046  0.00  0.00    +0.000 A 
ATOM     21  C   UNL     1      -3.678   3.110   0.036  0.00  0.00    +0.000 A 
ATOM     22  C   UNL     1      -3.635   1.705   0.029  0.00  0.00    +0.000 A 
ATOM     23  C   UNL     1      -4.851   1.008   0.025  0.00  0.00    +0.000 A 
ATOM     24  C   UNL     1      -6.031   1.721   0.041  0.00  0.00    +0.000 A 
ATOM     25  N   UNL     1      -6.029   3.041   0.048  0.00  0.00    +0.000 NA
BRANCH  21  26
ATOM     26  O   UNL     1      -2.530   3.836   0.034  0.00  0.00    +0.000 OA
ATOM     27  H   UNL     1      -2.599   4.417   0.833  0.00  0.00    +0.000 HD
ENDBRANCH  21  26
BRANCH  23  28
ATOM     28  C   UNL     1      -4.868  -0.498   0.010  0.00  0.00    +0.000 C 
BRANCH  28  29
ATOM     29  O   UNL     1      -6.221  -0.959   0.009  0.00  0.00    +0.000 OA
ATOM     30  H   UNL     1      -6.687  -0.616  -0.795  0.00  0.00    +0.000 HD
ENDBRANCH  28  29
ENDBRANCH  23  28
ENDBRANCH  17  22
ENDBRANCH   1  18
TORSDOF 9
ENDMDL
MODEL      995
REMARK  Name = ZINC05886574
REMARK  8 active torsions:
REMARK  status: ('A' for Active; 'I' for Inactive)
REMARK    1  A    between atoms: C_1  and  C_2
REMARK    2  A    between atoms: C_2  and  O_4
REMARK    3  A    between atoms: O_4  and  C_5
REMARK    4  A    between atoms: C_5  and  C_6
REMARK    5  A    between atoms: C_5  and  C_12
REMARK    6  A    between atoms: C_6  and  N_27
REMARK    7  A    between atoms: C_12  and  O_13
REMARK    8  A    between atoms: O_13  and  C_14
REMARK                            x       y       z     vdW  Elec       q    Type
REMARK                         _______ _______ _______ _____ _____    ______ ____
ROOT
ATOM      1  O   UNL     1      -3.331   2.119   1.882  0.00  0.00    +0.000 OA
ENDROOT
BRANCH   1   2
ATOM      2  C   UNL     1      -4.249   2.864   2.549  0.00  0.00    +0.000 A 
ATOM      3  C   UNL     1      -5.330   3.416   1.853  0.00  0.00    +0.000 A 
ATOM      4  C   UNL     1      -6.264   4.166   2.498  0.00  0.00    +0.000 A 
ATOM      5  C   UNL     1      -6.144   4.391   3.879  0.00  0.00    +0.000 A 
ATOM      6  C   UNL     1      -5.051   3.835   4.588  0.00  0.00    +0.000 A 
ATOM      7  C   UNL     1      -4.109   3.066   3.907  0.00  0.00    +0.000 A 
ATOM      8  N   UNL     1      -4.955   4.066   5.927  0.00  0.00    +0.000 N 
ATOM      9  N   UNL     1      -5.852   4.781   6.516  0.00  0.00    +0.000 NA
ATOM     10  C   UNL     1      -6.874   5.303   5.864  0.00  0.00    +0.000 A 
ATOM     11  N   UNL     1      -7.040   5.124   4.556  0.00  0.00    +0.000 N 
ATOM     12  O   UNL     1      -7.993   5.619   3.982  0.00  0.00    +0.000 OA
ATOM     13  N   UNL     1      -7.805   6.063   6.565  0.00  0.00    +0.000 N 
ATOM     14  O   UNL     1      -3.875   3.527   6.668  0.00  0.00    +0.000 OA
ATOM     15  H   UNL     1      -7.701   6.218   7.578  0.00  0.00    +0.000 HD
ATOM     16  H   UNL     1      -8.606   6.475   6.065  0.00  0.00    +0.000 HD
ENDBRANCH   1   2
BRANCH   1  17
ATOM     17  C   UNL     1      -3.534   1.942   0.479  0.00  0.00    +0.000 C 
BRANCH  17  18
ATOM     18  C   UNL     1      -2.407   1.081  -0.095  0.00  0.00    +0.000 C 
BRANCH  18  19
ATOM     19  C   UNL     1      -2.690   0.788  -1.570  0.00  0.00    +0.000 C 
BRANCH  19  25
ATOM     20  C   UNL     1      -3.671  -1.398  -1.221  0.00  0.00    +0.000 C 
ATOM     21  C   UNL     1      -4.991  -2.171  -1.216  0.00  0.00    +0.000 C 
ATOM     22  C   UNL     1      -5.577  -2.182  -2.630  0.00  0.00    +0.000 C 
ATOM     23  C   UNL     1      -5.770  -0.739  -3.105  0.00  0.00    +0.000 C 
ATOM     24  C   UNL     1      -4.427  -0.007  -3.056  0.00  0.00    +0.000 C 
ATOM     25  N   UNL     1      -3.929  -0.011  -1.664  0.00  0.00    +0.000 N 
ATOM     26  H   UNL     1      -4.645   0.407  -1.053  0.00  0.00    +0.000 HD
ENDBRANCH  19  25
ENDBRANCH  18  19
BRANCH  18  27
ATOM     27  O   UNL     1      -1.146   1.792   0.024  0.00  0.00    +0.000 OA
BRANCH  27  29
ATOM     28  C   UNL     1       1.321   1.717   0.069  0.00  0.00    +0.000 C 
ATOM     29  C   UNL     1      -0.029   1.049   0.069  0.00  0.00    +0.000 C 
ATOM     30  O   UNL     1      -0.107  -0.156   0.105  0.00  0.00    +0.000 OA
ENDBRANCH  27  29
ENDBRANCH  18  27
ENDBRANCH  17  18
ENDBRANCH   1  17
TORSDOF 7
ENDMDL
MODEL      996
REMARK  Name = ZINC28812788
REMARK  10 active torsions:
REMARK  status: ('A' for Active; 'I' for Inactive)
REMARK    1  A    between atoms: C_1  and  N_2
REMARK    2  A    between atoms: C_4  and  S_10
REMARK    3  A    between atoms: C_6  and  C_7
REMARK    4  A    between atoms: S_10  and  N_13
REMARK    5  A    between atoms: N_16  and  C_19
REMARK    6  A    between atoms: C_19  and  C_20
REMARK    7  A    between atoms: C_20  and  C_21
REMARK    8  A    between atoms: C_20  and  C_25
REMARK    9  A    between atoms: C_21  and  C_22
REMARK   10  A    between atoms: C_22  and  C_23
REMARK                            x       y       z     vdW  Elec       q    Type
REMARK                         _______ _______ _______ _____ _____    ______ ____
ROOT
ATOM      1  S   UNL     1       0.206   9.187   4.491  0.00  0.00    +0.000 S 
ATOM      2  O   UNL     1       1.401   9.708   3.925  0.00  0.00    +0.000 OA
ATOM      3  O   UNL     1      -0.912  10.008   4.798  0.00  0.00    +0.000 OA
ENDROOT
BRANCH   1   7
ATOM      4  C   UNL     1       2.986   6.701   8.206  0.00  0.00    +0.000 C 
ATOM      5  N   UNL     1       1.859   7.341   7.524  0.00  0.00    +0.000 N 
ATOM      6  C   UNL     1       1.893   7.885   6.282  0.00  0.00    +0.000 A 
ATOM      7  C   UNL     1       0.667   8.381   5.989  0.00  0.00    +0.000 A 
ATOM      8  C   UNL     1      -0.166   8.146   7.087  0.00  0.00    +0.000 A 
ATOM      9  C   UNL     1       0.590   7.491   8.036  0.00  0.00    +0.000 A 
BRANCH   9  10
ATOM     10  C   UNL     1       0.129   7.042   9.353  0.00  0.00    +0.000 C 
ATOM     11  O   UNL     1       0.920   6.566  10.146  0.00  0.00    +0.000 OA
ATOM     12  N   UNL     1      -1.172   7.156   9.687  0.00  0.00    +0.000 N 
ATOM     13  H   UNL     1      -1.842   7.560   9.016  0.00  0.00    +0.000 HD
ATOM     14  H   UNL     1      -1.497   6.841  10.612  0.00  0.00    +0.000 HD
ENDBRANCH   9  10
ENDBRANCH   1   7
BRANCH   1  15
ATOM     15  N   UNL     1      -0.337   8.017   3.453  0.00  0.00    +0.000 NA
ATOM     16  C   UNL     1      -1.757   7.635   3.422  0.00  0.00    +0.000 C 
ATOM     17  C   UNL     1      -1.855   6.111   3.545  0.00  0.00    +0.000 C 
ATOM     18  N   UNL     1      -1.021   5.485   2.510  0.00  0.00    +0.000 NA
ATOM     19  C   UNL     1       0.398   5.819   2.695  0.00  0.00    +0.000 C 
ATOM     20  C   UNL     1       0.587   7.332   2.537  0.00  0.00    +0.000 C 
BRANCH  18  21
ATOM     21  C   UNL     1      -1.219   4.029   2.483  0.00  0.00    +0.000 C 
BRANCH  21  22
ATOM     22  C   UNL     1      -0.536   3.445   1.246  0.00  0.00    +0.000 C 
BRANCH  22  23
ATOM     23  C   UNL     1      -1.200   3.951   0.033  0.00  0.00    +0.000 C 
ATOM     24  N   UNL     1      -1.712   4.341  -0.902  0.00  0.00    +0.000 NA
ENDBRANCH  22  23
BRANCH  22  25
ATOM     25  C   UNL     1      -0.635   1.918   1.282  0.00  0.00    +0.000 C 
BRANCH  25  26
ATOM     26  C   UNL     1       0.154   1.328   0.112  0.00  0.00    +0.000 C 
BRANCH  26  27
ATOM     27  C   UNL     1       0.059  -0.141   0.147  0.00  0.00    +0.000 C 
ATOM     28  N   UNL     1      -0.015  -1.274   0.173  0.00  0.00    +0.000 NA
ENDBRANCH  26  27
ENDBRANCH  25  26
ENDBRANCH  22  25
ENDBRANCH  21  22
ENDBRANCH  18  21
ENDBRANCH   1  15
TORSDOF 9
ENDMDL
MODEL      997
REMARK  Name = ZINC29491643
REMARK  8 active torsions:
REMARK  status: ('A' for Active; 'I' for Inactive)
REMARK    1  A    between atoms: C_1  and  N_2
REMARK    2  A    between atoms: N_2  and  C_3
REMARK    3  A    between atoms: C_10  and  C_12
REMARK    4  A    between atoms: C_12  and  S_13
REMARK    5  A    between atoms: S_13  and  C_14
REMARK    6  A    between atoms: N_15  and  C_16
REMARK    7  A    between atoms: C_19  and  O_22
REMARK    8  A    between atoms: O_22  and  C_23
REMARK                            x       y       z     vdW  Elec       q    Type
REMARK                         _______ _______ _______ _____ _____    ______ ____
ROOT
ATOM      1  C   UNL     1       2.134  -2.090  -5.505  0.00  0.00    +0.000 C 
ATOM      2  N   UNL     1       2.415  -2.472  -4.280  0.00  0.00    +0.000 N 
ATOM      3  N   UNL     1       1.274  -1.040  -5.718  0.00  0.00    +0.000 N 
ATOM      4  H   UNL     1       3.125  -3.200  -4.118  0.00  0.00    +0.000 HD
ATOM      5  H   UNL     1       1.055  -0.740  -6.678  0.00  0.00    +0.000 HD
ATOM      6  H   UNL     1       0.850  -0.551  -4.916  0.00  0.00    +0.000 HD
ENDROOT
BRANCH   2   7
ATOM      7  C   UNL     1       1.762  -1.901  -3.218  0.00  0.00    +0.000 A 
ATOM      8  C   UNL     1       0.367  -1.893  -3.176  0.00  0.00    +0.000 A 
ATOM      9  C   UNL     1      -0.286  -1.319  -2.105  0.00  0.00    +0.000 A 
ATOM     10  C   UNL     1       0.443  -0.749  -1.071  0.00  0.00    +0.000 A 
ATOM     11  C   UNL     1       1.830  -0.749  -1.111  0.00  0.00    +0.000 A 
ATOM     12  C   UNL     1       2.491  -1.327  -2.175  0.00  0.00    +0.000 A 
BRANCH  10  13
ATOM     13  O   UNL     1      -0.204  -0.183  -0.017  0.00  0.00    +0.000 OA
ATOM     14  C   UNL     1       0.607   0.385   1.013  0.00  0.00    +0.000 C 
ENDBRANCH  10  13
ENDBRANCH   2   7
BRANCH   1  15
ATOM     15  S   UNL     1       2.861  -2.925  -6.876  0.00  0.00    +0.000 S 
BRANCH  15  16
ATOM     16  C   UNL     1       3.854  -4.160  -6.002  0.00  0.00    +0.000 C 
BRANCH  16  19
ATOM     17  C   UNL     1       5.558  -6.256  -5.144  0.00  0.00    +0.000 C 
ATOM     18  N   UNL     1       5.394  -6.008  -6.578  0.00  0.00    +0.000 N 
ATOM     19  C   UNL     1       4.587  -5.015  -7.003  0.00  0.00    +0.000 C 
ATOM     20  O   UNL     1       4.452  -4.810  -8.191  0.00  0.00    +0.000 OA
BRANCH  18  21
ATOM     21  C   UNL     1       6.107  -6.840  -7.551  0.00  0.00    +0.000 C 
ATOM     22  C   UNL     1       5.713  -8.314  -7.361  0.00  0.00    +0.000 C 
ATOM     23  C   UNL     1       6.684  -9.225  -8.152  0.00  0.00    +0.000 C 
ATOM     24  S   UNL     1       8.232  -8.234  -8.184  0.00  0.00    +0.000 S 
ATOM     25  O   UNL     1       8.547  -7.911  -9.531  0.00  0.00    +0.000 OA
ATOM     26  O   UNL     1       9.207  -8.873  -7.371  0.00  0.00    +0.000 OA
ATOM     27  C   UNL     1       7.641  -6.714  -7.326  0.00  0.00    +0.000 C 
ENDBRANCH  18  21
ENDBRANCH  16  19
ENDBRANCH  15  16
ENDBRANCH   1  15
TORSDOF 6
ENDMDL
MODEL      998
REMARK  Name = ZINC31754910
REMARK  10 active torsions:
REMARK  status: ('A' for Active; 'I' for Inactive)
REMARK    1  A    between atoms: C_1  and  C_2
REMARK    2  A    between atoms: C_5  and  O_9
REMARK    3  A    between atoms: C_6  and  C_8
REMARK    4  A    between atoms: O_9  and  C_10
REMARK    5  A    between atoms: C_10  and  C_11
REMARK    6  A    between atoms: C_14  and  S_17
REMARK    7  A    between atoms: N_15  and  N_16
REMARK    8  A    between atoms: S_17  and  C_18
REMARK    9  A    between atoms: C_18  and  C_19
REMARK   10  A    between atoms: C_19  and  N_20
REMARK                            x       y       z     vdW  Elec       q    Type
REMARK                         _______ _______ _______ _____ _____    ______ ____
ROOT
ATOM      1  C   UNL     1       3.714  -0.858  -0.037  0.00  0.00    +0.000 A 
ATOM      2  N   UNL     1       4.441  -1.148   1.005  0.00  0.00    +0.000 NA
ATOM      3  N   UNL     1       5.585  -1.601   0.632  0.00  0.00    +0.000 NA
ATOM      4  C   UNL     1       5.649  -1.625  -0.679  0.00  0.00    +0.000 A 
ATOM      5  N   UNL     1       4.455  -1.156  -1.147  0.00  0.00    +0.000 N 
ENDROOT
BRANCH   5   6
ATOM      6  N   UNL     1       4.079  -1.012  -2.452  0.00  0.00    +0.000 N 
ATOM      7  H   UNL     1       3.131  -0.636  -2.592  0.00  0.00    +0.000 HD
ATOM      8  H   UNL     1       4.684  -1.255  -3.250  0.00  0.00    +0.000 HD
ENDBRANCH   5   6
BRANCH   1   9
ATOM      9  C   UNL     1       2.313  -0.303  -0.021  0.00  0.00    +0.000 C 
BRANCH   9  10
ATOM     10  O   UNL     1       2.366   1.125  -0.014  0.00  0.00    +0.000 OA
BRANCH  10  15
ATOM     11  C   UNL     1      -2.553   3.867   0.046  0.00  0.00    +0.000 C 
ATOM     12  C   UNL     1      -1.237   3.133   0.030  0.00  0.00    +0.000 A 
ATOM     13  C   UNL     1      -1.218   1.751   0.017  0.00  0.00    +0.000 A 
ATOM     14  C   UNL     1      -0.013   1.076   0.008  0.00  0.00    +0.000 A 
ATOM     15  C   UNL     1       1.179   1.786   0.000  0.00  0.00    +0.000 A 
ATOM     16  C   UNL     1       1.157   3.173   0.008  0.00  0.00    +0.000 A 
ATOM     17  C   UNL     1      -0.051   3.844   0.023  0.00  0.00    +0.000 A 
ATOM     18  C   UNL     1       2.449   3.948   0.000  0.00  0.00    +0.000 C 
ENDBRANCH  10  15
ENDBRANCH   9  10
ENDBRANCH   1   9
BRANCH   4  19
ATOM     19  S   UNL     1       7.015  -2.166  -1.652  0.00  0.00    +0.000 S 
BRANCH  19  20
ATOM     20  C   UNL     1       8.172  -2.627  -0.339  0.00  0.00    +0.000 C 
BRANCH  20  21
ATOM     21  C   UNL     1       9.472  -3.142  -0.962  0.00  0.00    +0.000 C 
BRANCH  21  22
ATOM     22  N   UNL     1      10.408  -3.516   0.101  0.00  0.00    +0.000 N 
ATOM     23  C   UNL     1      10.481  -4.745   0.648  0.00  0.00    +0.000 C 
ATOM     24  O   UNL     1       9.808  -5.713   0.366  0.00  0.00    +0.000 OA
ATOM     25  C   UNL     1      11.578  -4.665   1.691  0.00  0.00    +0.000 C 
ATOM     26  N   UNL     1      12.039  -3.269   1.602  0.00  0.00    +0.000 NA
ATOM     27  C   UNL     1      11.301  -2.680   0.644  0.00  0.00    +0.000 C 
ATOM     28  O   UNL     1      11.428  -1.518   0.311  0.00  0.00    +0.000 OA
ENDBRANCH  21  22
ENDBRANCH  20  21
ENDBRANCH  19  20
ENDBRANCH   4  19
TORSDOF 8
ENDMDL
MODEL      999
REMARK  Name = ZINC05543801
REMARK  8 active torsions:
REMARK  status: ('A' for Active; 'I' for Inactive)
REMARK    1  A    between atoms: C_1  and  C_2
REMARK    2  A    between atoms: C_2  and  C_3
REMARK    3  A    between atoms: C_3  and  C_4
REMARK    4  A    between atoms: C_4  and  C_6
REMARK    5  A    between atoms: C_7  and  C_13
REMARK    6  A    between atoms: CA_9  and  C_11
REMARK    7  A    between atoms: N_16  and  C_19
REMARK    8  A    between atoms: C_19  and  C_20
REMARK                            x       y       z     vdW  Elec       q    Type
REMARK                         _______ _______ _______ _____ _____    ______ ____
ROOT
ATOM      1  C   UNL     1      -0.674   5.746   4.688  0.00  0.00    +0.000 A 
ATOM      2  C   UNL     1      -0.381   5.154   3.478  0.00  0.00    +0.000 A 
ATOM      3  C   UNL     1       0.897   4.606   3.577  0.00  0.00    +0.000 A 
ATOM      4  CA  UNL     1       1.361   4.869   4.851  0.00  0.00    +0.000 A 
ATOM      5  N   UNL     1       0.392   5.563   5.524  0.00  0.00    +0.000 N 
ATOM      6  H   UNL     1       0.455   5.893   6.497  0.00  0.00    +0.000 HD
ENDROOT
BRANCH   2   7
ATOM      7  C   UNL     1      -1.276   5.111   2.266  0.00  0.00    +0.000 C 
ATOM      8  C   UNL     1      -1.508   3.651   1.815  0.00  0.00    +0.000 C 
ATOM      9  C   UNL     1      -1.542   3.800   0.276  0.00  0.00    +0.000 C 
ATOM     10  N   UNL     1      -0.753   5.002  -0.016  0.00  0.00    +0.000 N 
ATOM     11  C   UNL     1      -0.596   5.762   1.082  0.00  0.00    +0.000 C 
ATOM     12  O   UNL     1       0.004   6.815   1.118  0.00  0.00    +0.000 OA
BRANCH  10  13
ATOM     13  C   UNL     1      -0.211   5.335  -1.336  0.00  0.00    +0.000 C 
BRANCH  13  14
ATOM     14  C   UNL     1       1.170   4.748  -1.474  0.00  0.00    +0.000 A 
ATOM     15  C   UNL     1       2.276   5.486  -1.096  0.00  0.00    +0.000 A 
ATOM     16  C   UNL     1       3.543   4.950  -1.230  0.00  0.00    +0.000 A 
ATOM     17  C   UNL     1       3.704   3.675  -1.740  0.00  0.00    +0.000 A 
ATOM     18  C   UNL     1       2.599   2.937  -2.118  0.00  0.00    +0.000 A 
ATOM     19  C   UNL     1       1.331   3.474  -1.985  0.00  0.00    +0.000 A 
ENDBRANCH  13  14
ENDBRANCH  10  13
ENDBRANCH   2   7
BRANCH   4  20
ATOM     20  C   UNL     1       2.670   4.471   5.391  0.00  0.00    +0.000 C 
ATOM     21  O   UNL     1       3.452   3.853   4.695  0.00  0.00    +0.000 OA
ATOM     22  OXT UNL     1       3.002   4.792   6.657  0.00  0.00    +0.000 OA
ENDBRANCH   4  20
BRANCH   1  23
ATOM     23  C   UNL     1      -1.925   6.452   5.025  0.00  0.00    +0.000 C 
ATOM     24  O   UNL     1      -2.812   6.550   4.195  0.00  0.00    +0.000 OA
BRANCH  23  25
ATOM     25  C   UNL     1      -2.094   7.016   6.310  0.00  0.00    +0.000 C 
BRANCH  25  27
ATOM     26  C   UNL     1      -3.420   8.299   7.963  0.00  0.00    +0.000 C 
ATOM     27  C   UNL     1      -3.284   7.553   6.661  0.00  0.00    +0.000 C 
ATOM     28  N   UNL     1      -4.364   7.420   5.835  0.00  0.00    +0.000 N 
ATOM     29  H   UNL     1      -5.270   7.829   6.102  0.00  0.00    +0.000 HD
ATOM     30  H   UNL     1      -4.271   6.910   4.945  0.00  0.00    +0.000 HD
ENDBRANCH  25  27
ENDBRANCH  23  25
ENDBRANCH   1  23
TORSDOF 7
ENDMDL
MODEL     1000
REMARK  Name = ZINC20836503
REMARK  7 active torsions:
REMARK  status: ('A' for Active; 'I' for Inactive)
REMARK    1  A    between atoms: N_5  and  N_6
REMARK    2  A    between atoms: C_9  and  S_12
REMARK    3  A    between atoms: S_12  and  C_13
REMARK    4  A    between atoms: C_13  and  C_14
REMARK    5  A    between atoms: N_16  and  N_17
REMARK    6  A    between atoms: N_17  and  C_18
REMARK    7  A    between atoms: C_18  and  C_20
REMARK                            x       y       z     vdW  Elec       q    Type
REMARK                         _______ _______ _______ _____ _____    ______ ____
ROOT
ATOM      1  N   UNL     1      -0.010   0.969  -0.025  0.00  0.00    +0.000 N 
ATOM      2  C   UNL     1       1.176   1.659   0.184  0.00  0.00    +0.000 A 
ATOM      3  N   UNL     1       2.433   1.121   0.166  0.00  0.00    +0.000 NA
ATOM      4  C   UNL     1       3.325   2.125   0.414  0.00  0.00    +0.000 A 
ATOM      5  N   UNL     1       2.649   3.237   0.579  0.00  0.00    +0.000 NA
ATOM      6  N   UNL     1       1.288   2.942   0.428  0.00  0.00    +0.000 N 
ATOM      7  H   UNL     1       0.009  -0.044  -0.211  0.00  0.00    +0.000 HD
ATOM      8  H   UNL     1       0.512   3.615   0.497  0.00  0.00    +0.000 HD
ENDROOT
BRANCH   1  13
ATOM      9  C   UNL     1      -4.703  -0.363   0.720  0.00  0.00    +0.000 C 
ATOM     10  C   UNL     1      -4.606   1.155   0.883  0.00  0.00    +0.000 C 
ATOM     11  C   UNL     1      -3.657   1.722  -0.177  0.00  0.00    +0.000 C 
ATOM     12  C   UNL     1      -2.332   0.998  -0.073  0.00  0.00    +0.000 C 
ATOM     13  N   UNL     1      -1.234   1.650   0.017  0.00  0.00    +0.000 NA
ATOM     14  C   UNL     1      -2.338  -0.514  -0.083  0.00  0.00    +0.000 C 
ATOM     15  C   UNL     1      -3.337  -1.000   0.979  0.00  0.00    +0.000 C 
ENDBRANCH   1  13
BRANCH   4  16
ATOM     16  S   UNL     1       5.077   1.956   0.497  0.00  0.00    +0.000 S 
BRANCH  16  17
ATOM     17  C   UNL     1       5.664   3.636   0.853  0.00  0.00    +0.000 C 
BRANCH  17  18
ATOM     18  C   UNL     1       7.168   3.632   0.952  0.00  0.00    +0.000 C 
ATOM     19  O   UNL     1       7.783   2.599   0.797  0.00  0.00    +0.000 OA
ATOM     20  N   UNL     1       7.828   4.778   1.212  0.00  0.00    +0.000 N 
ATOM     21  H   UNL     1       7.306   5.655   1.343  0.00  0.00    +0.000 HD
BRANCH  20  22
ATOM     22  N   UNL     1       9.226   4.775   1.303  0.00  0.00    +0.000 NA
BRANCH  22  23
ATOM     23  C   UNL     1       9.887   5.920   1.563  0.00  0.00    +0.000 C 
ATOM     24  O   UNL     1       9.272   6.954   1.718  0.00  0.00    +0.000 OA
BRANCH  23  25
ATOM     25  C   UNL     1      11.391   5.917   1.661  0.00  0.00    +0.000 C 
ATOM     26  F   UNL     1      11.843   7.212   1.936  0.00  0.00    +0.000 F 
ATOM     27  F   UNL     1      11.789   5.056   2.689  0.00  0.00    +0.000 F 
ATOM     28  F   UNL     1      11.937   5.479   0.449  0.00  0.00    +0.000 F 
ENDBRANCH  23  25
ENDBRANCH  22  23
ENDBRANCH  20  22
ENDBRANCH  17  18
ENDBRANCH  16  17
ENDBRANCH   4  16
TORSDOF 7
ENDMDL
MODEL     1001
REMARK  Name = ZINC25200826
REMARK  7 active torsions:
REMARK  status: ('A' for Active; 'I' for Inactive)
REMARK    1  A    between atoms: C_5  and  C_6
REMARK    2  A    between atoms: C_6  and  O_8
REMARK    3  A    between atoms: O_8  and  C_9
REMARK    4  A    between atoms: C_9  and  C_10
REMARK    5  A    between atoms: N_12  and  N_13
REMARK    6  A    between atoms: C_14  and  C_16
REMARK    7  A    between atoms: C_16  and  C_17
REMARK                            x       y       z     vdW  Elec       q    Type
REMARK                         _______ _______ _______ _____ _____    ______ ____
ROOT
ATOM      1  C   UNL     1      -1.668   0.989  -7.168  0.00  0.00    +0.000 C 
ATOM      2  O   UNL     1      -0.972   0.010  -7.336  0.00  0.00    +0.000 OA
ATOM      3  N   UNL     1      -1.798   1.521  -5.936  0.00  0.00    +0.000 N 
ATOM      4  H   UNL     1      -2.389   2.352  -5.794  0.00  0.00    +0.000 HD
ENDROOT
BRANCH   3   5
ATOM      5  N   UNL     1      -1.128   0.943  -4.850  0.00  0.00    +0.000 N 
ATOM      6  C   UNL     1      -1.257   1.475  -3.618  0.00  0.00    +0.000 C 
ATOM      7  O   UNL     1      -1.953   2.454  -3.450  0.00  0.00    +0.000 OA
ATOM      8  H   UNL     1      -0.536   0.112  -4.992  0.00  0.00    +0.000 HD
BRANCH   6   9
ATOM      9  C   UNL     1      -0.537   0.853  -2.449  0.00  0.00    +0.000 C 
BRANCH   9  10
ATOM     10  C   UNL     1      -0.851   1.643  -1.178  0.00  0.00    +0.000 C 
ATOM     11  C   UNL     1      -2.340   1.490  -0.825  0.00  0.00    +0.000 C 
ATOM     12  C   UNL     1      -2.599   2.009   0.610  0.00  0.00    +0.000 C 
ATOM     13  S   UNL     1      -0.979   1.731   1.438  0.00  0.00    +0.000 S 
ATOM     14  O   UNL     1      -1.123   0.698   2.403  0.00  0.00    +0.000 OA
ATOM     15  O   UNL     1      -0.440   2.986   1.832  0.00  0.00    +0.000 OA
ATOM     16  C   UNL     1      -0.013   1.086   0.008  0.00  0.00    +0.000 C 
ENDBRANCH   9  10
ENDBRANCH   6   9
ENDBRANCH   3   5
BRANCH   1  17
ATOM     17  C   UNL     1      -2.389   1.611  -8.336  0.00  0.00    +0.000 C 
BRANCH  17  18
ATOM     18  O   UNL     1      -2.090   0.860  -9.543  0.00  0.00    +0.000 OA
BRANCH  18  19
ATOM     19  C   UNL     1      -2.661   1.289 -10.688  0.00  0.00    +0.000 C 
ATOM     20  O   UNL     1      -3.389   2.264 -10.676  0.00  0.00    +0.000 OA
BRANCH  19  25
ATOM     21  C   UNL     1      -2.924   0.903 -13.182  0.00  0.00    +0.000 A 
ATOM     22  C   UNL     1      -2.419  -0.030 -14.094  0.00  0.00    +0.000 A 
ATOM     23  C   UNL     1      -1.625  -0.891 -13.411  0.00  0.00    +0.000 A 
ATOM     24  N   UNL     1      -1.608  -0.530 -12.104  0.00  0.00    +0.000 N 
ATOM     25  C   UNL     1      -2.405   0.581 -11.944  0.00  0.00    +0.000 A 
ATOM     26 CL   UNL     1      -2.755  -0.079 -15.796  0.00  0.00    +0.000 Cl
ATOM     27  H   UNL     1      -1.086  -1.008 -11.356  0.00  0.00    +0.000 HD
ENDBRANCH  19  25
ENDBRANCH  18  19
ENDBRANCH  17  18
ENDBRANCH   1  17
TORSDOF 7
ENDMDL
MODEL     1002
REMARK  Name = ZINC19358828
REMARK  10 active torsions:
REMARK  status: ('A' for Active; 'I' for Inactive)
REMARK    1  A    between atoms: C_1  and  N_2
REMARK    2  A    between atoms: N_7  and  C_10
REMARK    3  A    between atoms: N_11  and  C_14
REMARK    4  A    between atoms: C_14  and  C_15
REMARK    5  A    between atoms: C_15  and  C_16
REMARK    6  A    between atoms: C_15  and  O_26
REMARK    7  A    between atoms: C_16  and  N_17
REMARK    8  A    between atoms: N_20  and  C_23
REMARK    9  A    between atoms: C_23  and  C_24
REMARK   10  A    between atoms: C_24  and  O_25
REMARK                            x       y       z     vdW  Elec       q    Type
REMARK                         _______ _______ _______ _____ _____    ______ ____
ROOT
ATOM      1  C   UNL     1      -2.851  -0.097   1.798  0.00  0.00    +0.000 C 
ENDROOT
BRANCH   1   2
ATOM      2  O   UNL     1      -1.530  -0.326   2.293  0.00  0.00    +0.000 OA
ATOM      3  H   UNL     1      -1.048   0.535   2.361  0.00  0.00    +0.000 HD
ENDBRANCH   1   2
BRANCH   1   4
ATOM      4  C   UNL     1      -2.771   0.552   0.414  0.00  0.00    +0.000 C 
BRANCH   4  15
ATOM      5  C   UNL     1       0.679   5.579   0.849  0.00  0.00    +0.000 C 
ATOM      6  N   UNL     1       0.544   4.127   0.713  0.00  0.00    +0.000 N 
ATOM      7  C   UNL     1      -0.714   3.549   0.673  0.00  0.00    +0.000 A 
ATOM      8  C   UNL     1      -0.815   2.170   0.539  0.00  0.00    +0.000 A 
ATOM      9  C   UNL     1       0.364   1.399   0.457  0.00  0.00    +0.000 A 
ATOM     10  O   UNL     1       0.302   0.188   0.344  0.00  0.00    +0.000 OA
ATOM     11  N   UNL     1       1.561   2.020   0.501  0.00  0.00    +0.000 N 
ATOM     12  C   UNL     1       1.645   3.355   0.627  0.00  0.00    +0.000 A 
ATOM     13  O   UNL     1       2.741   3.880   0.663  0.00  0.00    +0.000 OA
ATOM     14  C   UNL     1       2.789   1.226   0.411  0.00  0.00    +0.000 C 
ATOM     15  N   UNL     1      -2.165   1.881   0.533  0.00  0.00    +0.000 N 
ATOM     16  C   UNL     1      -2.820   3.052   0.651  0.00  0.00    +0.000 A 
ATOM     17  N   UNL     1      -1.958   4.033   0.734  0.00  0.00    +0.000 NA
ENDBRANCH   4  15
ENDBRANCH   1   4
BRANCH   1  18
ATOM     18  C   UNL     1      -3.595  -1.430   1.693  0.00  0.00    +0.000 C 
BRANCH  18  19
ATOM     19  N   UNL     1      -3.692  -2.042   3.025  0.00  0.00    +0.000 N 
ATOM     20  C   UNL     1      -3.963  -3.483   2.924  0.00  0.00    +0.000 C 
ATOM     21  C   UNL     1      -3.978  -4.096   4.326  0.00  0.00    +0.000 C 
ATOM     22  N   UNL     1      -5.002  -3.426   5.140  0.00  0.00    +0.000 NA
ATOM     23  C   UNL     1      -4.730  -1.986   5.242  0.00  0.00    +0.000 C 
ATOM     24  C   UNL     1      -4.715  -1.372   3.839  0.00  0.00    +0.000 C 
ATOM     25  H   UNL     1      -2.783  -1.922   3.495  0.00  0.00    +0.000 HD
BRANCH  22  26
ATOM     26  C   UNL     1      -5.098  -4.038   6.472  0.00  0.00    +0.000 C 
BRANCH  26  27
ATOM     27  C   UNL     1      -6.447  -3.681   7.101  0.00  0.00    +0.000 C 
BRANCH  27  28
ATOM     28  O   UNL     1      -7.500  -4.274   6.338  0.00  0.00    +0.000 OA
ATOM     29  H   UNL     1      -7.390  -5.258   6.330  0.00  0.00    +0.000 HD
ENDBRANCH  27  28
ENDBRANCH  26  27
ENDBRANCH  22  26
ENDBRANCH  18  19
ENDBRANCH   1  18
TORSDOF 8
ENDMDL
MODEL     1003
REMARK  Name = ZINC26540596
REMARK  9 active torsions:
REMARK  status: ('A' for Active; 'I' for Inactive)
REMARK    1  A    between atoms: C_1  and  N_2
REMARK    2  A    between atoms: C_5  and  S_8
REMARK    3  A    between atoms: S_8  and  N_11
REMARK    4  A    between atoms: N_11  and  C_12
REMARK    5  A    between atoms: C_14  and  N_22
REMARK    6  A    between atoms: C_17  and  N_18
REMARK    7  A    between atoms: N_18  and  C_19
REMARK    8  A    between atoms: C_19  and  C_20
REMARK    9  A    between atoms: C_20  and  O_21
REMARK                            x       y       z     vdW  Elec       q    Type
REMARK                         _______ _______ _______ _____ _____    ______ ____
ROOT
ATOM      1  C   UNL     1      -3.757   1.972   0.173  0.00  0.00    +0.000 A 
ATOM      2  C   UNL     1      -2.506   1.376   0.198  0.00  0.00    +0.000 A 
ATOM      3  C   UNL     1      -1.372   2.155   0.337  0.00  0.00    +0.000 A 
ATOM      4  C   UNL     1      -1.482   3.527   0.457  0.00  0.00    +0.000 A 
ATOM      5  C   UNL     1      -2.725   4.131   0.427  0.00  0.00    +0.000 A 
ATOM      6  C   UNL     1      -3.868   3.357   0.288  0.00  0.00    +0.000 A 
ENDROOT
BRANCH   3   7
ATOM      7  N   UNL     1      -0.037   1.516   0.364  0.00  0.00    +0.000 N 
ATOM      8  O   UNL     1       0.062   0.306   0.263  0.00  0.00    +0.000 OA
ATOM      9  O   UNL     1       0.964   2.201   0.481  0.00  0.00    +0.000 OA
ENDBRANCH   3   7
BRANCH   6  10
ATOM     10  N   UNL     1      -5.129   3.966   0.263  0.00  0.00    +0.000 N 
ATOM     11  H   UNL     1      -5.976   3.390   0.159  0.00  0.00    +0.000 HD
BRANCH  10  12
ATOM     12  C   UNL     1      -5.242   5.421   0.384  0.00  0.00    +0.000 C 
BRANCH  12  13
ATOM     13  C   UNL     1      -6.717   5.824   0.327  0.00  0.00    +0.000 C 
BRANCH  13  14
ATOM     14  O   UNL     1      -7.400   5.296   1.466  0.00  0.00    +0.000 OA
ATOM     15  H   UNL     1      -6.991   5.656   2.293  0.00  0.00    +0.000 HD
ENDBRANCH  13  14
ENDBRANCH  12  13
ENDBRANCH  10  12
ENDBRANCH   6  10
BRANCH   1  16
ATOM     16  N   UNL     1      -4.907   1.185   0.031  0.00  0.00    +0.000 NA
BRANCH  16  17
ATOM     17  S   UNL     1      -4.980  -0.310   0.740  0.00  0.00    +0.000 S 
ATOM     18  O   UNL     1      -6.288  -0.810   0.500  0.00  0.00    +0.000 OA
ATOM     19  O   UNL     1      -3.811  -1.008   0.335  0.00  0.00    +0.000 OA
BRANCH  17  24
ATOM     20  C   UNL     1      -3.131   0.264   5.636  0.00  0.00    +0.000 C 
ATOM     21  N   UNL     1      -4.047   0.165   4.497  0.00  0.00    +0.000 N 
ATOM     22  C   UNL     1      -5.394   0.267   4.540  0.00  0.00    +0.000 A 
ATOM     23  N   UNL     1      -5.864   0.126   3.331  0.00  0.00    +0.000 NA
ATOM     24  C   UNL     1      -4.844  -0.068   2.480  0.00  0.00    +0.000 A 
ATOM     25  C   UNL     1      -3.699  -0.052   3.191  0.00  0.00    +0.000 A 
ATOM     26 CL   UNL     1      -2.092  -0.263   2.569  0.00  0.00    +0.000 Cl
ENDBRANCH  17  24
ENDBRANCH  16  17
ENDBRANCH   1  16
TORSDOF 8
ENDMDL
MODEL     1004
REMARK  Name = ZINC29244244
REMARK  9 active torsions:
REMARK  status: ('A' for Active; 'I' for Inactive)
REMARK    1  A    between atoms: C_1  and  O_2
REMARK    2  A    between atoms: O_2  and  C_3
REMARK    3  A    between atoms: C_3  and  C_4
REMARK    4  A    between atoms: C_4  and  N_5
REMARK    5  A    between atoms: C_9  and  C_11
REMARK    6  A    between atoms: C_11  and  N_12
REMARK    7  A    between atoms: N_15  and  C_18
REMARK    8  A    between atoms: C_19  and  C_26
REMARK    9  A    between atoms: C_21  and  C_23
REMARK                            x       y       z     vdW  Elec       q    Type
REMARK                         _______ _______ _______ _____ _____    ______ ____
ROOT
ATOM      1  N   UNL     1       2.043  -4.329  -1.103  0.00  0.00    +0.000 NA
ATOM      2  C   UNL     1       1.161  -4.090   0.048  0.00  0.00    +0.000 C 
ATOM      3  C   UNL     1       0.617  -2.660  -0.019  0.00  0.00    +0.000 C 
ATOM      4  N   UNL     1       1.739  -1.712  -0.024  0.00  0.00    +0.000 N 
ATOM      5  C   UNL     1       2.622  -1.951  -1.175  0.00  0.00    +0.000 C 
ATOM      6  C   UNL     1       3.166  -3.380  -1.108  0.00  0.00    +0.000 C 
ENDROOT
BRANCH   4   7
ATOM      7  C   UNL     1       1.285  -0.409  -0.012  0.00  0.00    +0.000 A 
ATOM      8  C   UNL     1       2.061   0.738  -0.014  0.00  0.00    +0.000 A 
ATOM      9  N   UNL     1       1.199   1.794   0.000  0.00  0.00    +0.000 NA
ATOM     10  C   UNL     1      -0.016   1.339   0.009  0.00  0.00    +0.000 A 
ATOM     11  O   UNL     1       0.002  -0.004   0.002  0.00  0.00    +0.000 OA
BRANCH  10  12
ATOM     12  C   UNL     1      -1.260   2.189   0.020  0.00  0.00    +0.000 C 
ATOM     13  C   UNL     1      -1.088   3.696  -0.176  0.00  0.00    +0.000 C 
ATOM     14  C   UNL     1      -1.455   3.141   1.202  0.00  0.00    +0.000 C 
ENDBRANCH  10  12
BRANCH   8  15
ATOM     15  C   UNL     1       3.491   0.802  -0.026  0.00  0.00    +0.000 C 
ATOM     16  N   UNL     1       4.626   0.853  -0.037  0.00  0.00    +0.000 NA
ENDBRANCH   8  15
ENDBRANCH   4   7
BRANCH   1  17
ATOM     17  C   UNL     1       2.526  -5.716  -1.115  0.00  0.00    +0.000 C 
BRANCH  17  22
ATOM     18  N   UNL     1       4.896  -8.678  -4.069  0.00  0.00    +0.000 N 
ATOM     19  C   UNL     1       4.369  -7.460  -3.832  0.00  0.00    +0.000 C 
ATOM     20  O   UNL     1       4.453  -6.587  -4.673  0.00  0.00    +0.000 OA
ATOM     21  N   UNL     1       3.748  -7.212  -2.661  0.00  0.00    +0.000 N 
ATOM     22  C   UNL     1       3.220  -5.994  -2.424  0.00  0.00    +0.000 C 
ATOM     23  O   UNL     1       3.304  -5.123  -3.263  0.00  0.00    +0.000 OA
ATOM     24  H   UNL     1       4.825  -9.418  -3.356  0.00  0.00    +0.000 HD
ATOM     25  H   UNL     1       3.677  -7.952  -1.948  0.00  0.00    +0.000 HD
BRANCH  18  26
ATOM     26  C   UNL     1       5.571  -8.948  -5.341  0.00  0.00    +0.000 C 
BRANCH  26  27
ATOM     27  C   UNL     1       6.074 -10.393  -5.354  0.00  0.00    +0.000 C 
BRANCH  27  29
ATOM     28  C   UNL     1       5.321 -12.668  -5.330  0.00  0.00    +0.000 C 
ATOM     29  O   UNL     1       4.959 -11.286  -5.321  0.00  0.00    +0.000 OA
ENDBRANCH  27  29
ENDBRANCH  26  27
ENDBRANCH  18  26
ENDBRANCH  17  22
ENDBRANCH   1  17
TORSDOF 8
ENDMDL
MODEL     1005
REMARK  Name = ZINC27969144
REMARK  8 active torsions:
REMARK  status: ('A' for Active; 'I' for Inactive)
REMARK    1  A    between atoms: C_1  and  O_2
REMARK    2  A    between atoms: O_2  and  C_3
REMARK    3  A    between atoms: C_3  and  C_5
REMARK    4  A    between atoms: C_5  and  N_6
REMARK    5  A    between atoms: C_7  and  C_9
REMARK    6  A    between atoms: C_9  and  N_10
REMARK    7  A    between atoms: N_10  and  S_11
REMARK    8  A    between atoms: S_11  and  C_14
REMARK                            x       y       z     vdW  Elec       q    Type
REMARK                         _______ _______ _______ _____ _____    ______ ____
ROOT
ATOM      1  S   UNL     1       0.887  -4.458  -0.030  0.00  0.00    +0.000 S 
ATOM      2  O   UNL     1       0.078  -5.026  -1.051  0.00  0.00    +0.000 OA
ATOM      3  O   UNL     1       2.302  -4.591  -0.017  0.00  0.00    +0.000 OA
ENDROOT
BRANCH   1   4
ATOM      4  C   UNL     1       0.544  -2.730  -0.018  0.00  0.00    +0.000 A 
ATOM      5  C   UNL     1       1.584  -1.816  -0.023  0.00  0.00    +0.000 A 
ATOM      6  C   UNL     1       1.312  -0.467  -0.013  0.00  0.00    +0.000 A 
ATOM      7  C   UNL     1       0.002  -0.004   0.002  0.00  0.00    +0.000 A 
ATOM      8  C   UNL     1      -1.040  -0.929   0.007  0.00  0.00    +0.000 A 
ATOM      9  C   UNL     1      -0.765  -2.282  -0.003  0.00  0.00    +0.000 A 
ATOM     10 CL   UNL     1      -2.069  -3.428   0.004  0.00  0.00    +0.000 Cl
ATOM     11  N   UNL     1      -0.017   1.391   0.010  0.00  0.00    +0.000 N 
ATOM     12  C   UNL     1       1.220   1.917   0.001  0.00  0.00    +0.000 C 
ATOM     13  O   UNL     1       1.501   3.097   0.004  0.00  0.00    +0.000 OA
ATOM     14  C   UNL     1       2.196   0.760  -0.015  0.00  0.00    +0.000 C 
ATOM     15  H   UNL     1      -0.880   1.954   0.021  0.00  0.00    +0.000 HD
ENDBRANCH   1   4
BRANCH   1  16
ATOM     16  N   UNL     1       0.340  -5.076   1.406  0.00  0.00    +0.000 NA
ATOM     17  H   UNL     1       1.007  -5.471   2.084  0.00  0.00    +0.000 HD
BRANCH  16  18
ATOM     18  C   UNL     1      -1.093  -5.061   1.711  0.00  0.00    +0.000 C 
BRANCH  18  20
ATOM     19  N   UNL     1      -2.628  -6.133   3.327  0.00  0.00    +0.000 N 
ATOM     20  C   UNL     1      -1.369  -5.986   2.869  0.00  0.00    +0.000 C 
ATOM     21  O   UNL     1      -0.459  -6.597   3.387  0.00  0.00    +0.000 OA
ATOM     22  H   UNL     1      -3.401  -5.614   2.887  0.00  0.00    +0.000 HD
BRANCH  19  23
ATOM     23  C   UNL     1      -2.897  -7.032   4.452  0.00  0.00    +0.000 C 
BRANCH  23  24
ATOM     24  C   UNL     1      -4.371  -7.017   4.766  0.00  0.00    +0.000 C 
ATOM     25  O   UNL     1      -5.120  -6.326   4.117  0.00  0.00    +0.000 OA
BRANCH  24  27
ATOM     26  C   UNL     1      -6.281  -7.706   6.013  0.00  0.00    +0.000 C 
ATOM     27  O   UNL     1      -4.852  -7.771   5.767  0.00  0.00    +0.000 OA
ENDBRANCH  24  27
ENDBRANCH  23  24
ENDBRANCH  19  23
ENDBRANCH  18  20
ENDBRANCH  16  18
ENDBRANCH   1  16
TORSDOF 7
ENDMDL
MODEL     1006
REMARK  Name = ZINC16562397
REMARK  13 active torsions:
REMARK  status: ('A' for Active; 'I' for Inactive)
REMARK    1  A    between atoms: C_1  and  C_2
REMARK    2  A    between atoms: C_2  and  O_3
REMARK    3  A    between atoms: O_3  and  C_4
REMARK    4  A    between atoms: C_7  and  C_10
REMARK    5  A    between atoms: C_10  and  N_27
REMARK    6  A    between atoms: C_11  and  N_27
REMARK    7  A    between atoms: C_12  and  C_13
REMARK    8  A    between atoms: C_12  and  C_14
REMARK    9  A    between atoms: C_12  and  N_27
REMARK   10  A    between atoms: C_14  and  C_16
REMARK   11  A    between atoms: C_17  and  N_26
REMARK   12  A    between atoms: N_18  and  C_25
REMARK   13  A    between atoms: N_21  and  C_24
REMARK                            x       y       z     vdW  Elec       q    Type
REMARK                         _______ _______ _______ _____ _____    ______ ____
ROOT
ATOM      1  C   UNL     1      -0.831   2.659  -0.941  0.00  0.00    +0.000 C 
ATOM      2  O   UNL     1      -0.233   3.245  -1.821  0.00  0.00    +0.000 OA
ENDROOT
BRANCH   1   3
ATOM      3  C   UNL     1      -2.200   2.354  -1.099  0.00  0.00    +0.000 A 
ATOM      4  C   UNL     1      -2.861   2.598  -2.316  0.00  0.00    +0.000 A 
ATOM      5  N   UNL     1      -4.185   2.281  -2.422  0.00  0.00    +0.000 N 
ATOM      6  C   UNL     1      -4.862   1.756  -1.390  0.00  0.00    +0.000 A 
ATOM      7  O   UNL     1      -6.041   1.496  -1.534  0.00  0.00    +0.000 OA
ATOM      8  N   UNL     1      -4.286   1.506  -0.203  0.00  0.00    +0.000 N 
ATOM      9  C   UNL     1      -2.981   1.778   0.003  0.00  0.00    +0.000 A 
ATOM     10  O   UNL     1      -2.461   1.551   1.080  0.00  0.00    +0.000 OA
ATOM     11  C   UNL     1      -5.084   0.931   0.882  0.00  0.00    +0.000 C 
ATOM     12  C   UNL     1      -4.882   2.526  -3.688  0.00  0.00    +0.000 C 
BRANCH   4  13
ATOM     13  N   UNL     1      -2.191   3.135  -3.371  0.00  0.00    +0.000 N 
ATOM     14  H   UNL     1      -1.191   3.365  -3.276  0.00  0.00    +0.000 HD
ATOM     15  H   UNL     1      -2.679   3.312  -4.260  0.00  0.00    +0.000 HD
ENDBRANCH   4  13
ENDBRANCH   1   3
BRANCH   1  16
ATOM     16  C   UNL     1      -0.111   2.257   0.321  0.00  0.00    +0.000 C 
ATOM     17  C   UNL     1       0.267   0.776   0.243  0.00  0.00    +0.000 C 
BRANCH  16  19
ATOM     18  C   UNL     1       0.790   4.500   0.453  0.00  0.00    +0.000 C 
ATOM     19  N   UNL     1       1.123   3.060   0.446  0.00  0.00    +0.000 NA
BRANCH  19  20
ATOM     20  C   UNL     1       1.836   2.701   1.690  0.00  0.00    +0.000 C 
BRANCH  20  24
ATOM     21  C   UNL     1       5.671   4.587   1.677  0.00  0.00    +0.000 A 
ATOM     22  C   UNL     1       4.581   5.233   2.242  0.00  0.00    +0.000 A 
ATOM     23  C   UNL     1       3.342   4.621   2.245  0.00  0.00    +0.000 A 
ATOM     24  C   UNL     1       3.188   3.366   1.685  0.00  0.00    +0.000 A 
ATOM     25  C   UNL     1       4.274   2.718   1.127  0.00  0.00    +0.000 A 
ATOM     26  C   UNL     1       5.514   3.328   1.116  0.00  0.00    +0.000 A 
BRANCH  21  27
ATOM     27  O   UNL     1       6.890   5.187   1.672  0.00  0.00    +0.000 OA
BRANCH  27  29
ATOM     28  C   UNL     1       9.250   5.291   1.161  0.00  0.00    +0.000 C 
ATOM     29  C   UNL     1       7.967   4.463   1.073  0.00  0.00    +0.000 C 
ENDBRANCH  27  29
ENDBRANCH  21  27
ENDBRANCH  20  24
ENDBRANCH  19  20
ENDBRANCH  16  19
ENDBRANCH   1  16
TORSDOF 8
ENDMDL
MODEL     1007
REMARK  Name = ZINC04794950
REMARK  16 active torsions:
REMARK  status: ('A' for Active; 'I' for Inactive)
REMARK    1  A    between atoms: C_1  and  N_2
REMARK    2  A    between atoms: N_2  and  P_3
REMARK    3  A    between atoms: P_3  and  N_21
REMARK    4  A    between atoms: P_5  and  N_15
REMARK    5  A    between atoms: P_5  and  N_18
REMARK    6  A    between atoms: P_7  and  N_9
REMARK    7  A    between atoms: P_7  and  N_12
REMARK    8  A    between atoms: N_9  and  C_10
REMARK    9  A    between atoms: N_9  and  C_11
REMARK   10  A    between atoms: N_12  and  C_13
REMARK   11  A    between atoms: N_12  and  C_14
REMARK   12  A    between atoms: N_15  and  C_16
REMARK   13  A    between atoms: N_15  and  C_17
REMARK   14  A    between atoms: N_18  and  C_19
REMARK   15  A    between atoms: N_18  and  C_20
REMARK   16  A    between atoms: N_21  and  C_22
REMARK                            x       y       z     vdW  Elec       q    Type
REMARK                         _______ _______ _______ _____ _____    ______ ____
ROOT
ATOM      1  P   UNL     1       2.127  -0.679   1.818  0.00  0.00    +0.000 P 
ATOM      2  N   UNL     1       1.009   0.357   1.321  0.00  0.00    +0.000 NA
ATOM      3  P   UNL     1       1.442   1.535   0.325  0.00  0.00    +0.000 P 
ATOM      4  N   UNL     1       2.752   2.242   0.918  0.00  0.00    +0.000 NA
ATOM      5  P   UNL     1       3.975   1.321   1.389  0.00  0.00    +0.000 P 
ATOM      6  N   UNL     1       3.398   0.154   2.325  0.00  0.00    +0.000 NA
ENDROOT
BRANCH   1   8
ATOM      7  C   UNL     1       2.505  -2.600   3.529  0.00  0.00    +0.000 C 
ATOM      8  N   UNL     1       1.517  -1.609   3.081  0.00  0.00    +0.000 NA
ATOM      9  H   UNL     1       0.667  -2.096   2.766  0.00  0.00    +0.000 HD
ENDBRANCH   1   8
BRANCH   5  10
ATOM     10  N   UNL     1       5.081   2.247   2.256  0.00  0.00    +0.000 NA
ATOM     11  C   UNL     1       4.431   2.921   3.388  0.00  0.00    +0.000 C 
ATOM     12  C   UNL     1       6.213   1.428   2.710  0.00  0.00    +0.000 C 
ENDBRANCH   5  10
BRANCH   5  13
ATOM     13  N   UNL     1       4.729   0.647   0.044  0.00  0.00    +0.000 NA
ATOM     14  C   UNL     1       5.585   1.634  -0.628  0.00  0.00    +0.000 C 
ATOM     15  C   UNL     1       5.496  -0.550   0.414  0.00  0.00    +0.000 C 
ENDBRANCH   5  13
BRANCH   3  16
ATOM     16  N   UNL     1       1.780   0.896  -1.195  0.00  0.00    +0.000 NA
ATOM     17  C   UNL     1       0.543   0.645  -1.947  0.00  0.00    +0.000 C 
ATOM     18  C   UNL     1       2.684   1.777  -1.946  0.00  0.00    +0.000 C 
ENDBRANCH   3  16
BRANCH   3  19
ATOM     19  N   UNL     1       0.196   2.660   0.204  0.00  0.00    +0.000 NA
ATOM     20  C   UNL     1      -0.220   3.131   1.532  0.00  0.00    +0.000 C 
ATOM     21  C   UNL     1       0.586   3.786  -0.655  0.00  0.00    +0.000 C 
ENDBRANCH   3  19
BRANCH   1  22
ATOM     22  N   UNL     1       2.578  -1.681   0.543  0.00  0.00    +0.000 NA
ATOM     23  C   UNL     1       1.430  -2.452   0.048  0.00  0.00    +0.000 C 
ATOM     24  H   UNL     1       3.310  -2.331   0.861  0.00  0.00    +0.000 HD
ENDBRANCH   1  22
TORSDOF 6
ENDMDL
MODEL     1008
REMARK  Name = ZINC06758343
REMARK  10 active torsions:
REMARK  status: ('A' for Active; 'I' for Inactive)
REMARK    1  A    between atoms: C_1  and  C_2
REMARK    2  A    between atoms: C_2  and  C_23
REMARK    3  A    between atoms: C_7  and  N_11
REMARK    4  A    between atoms: C_8  and  C_9
REMARK    5  A    between atoms: C_12  and  C_14
REMARK    6  A    between atoms: N_16  and  C_17
REMARK    7  A    between atoms: C_17  and  C_18
REMARK    8  A    between atoms: C_18  and  N_25
REMARK    9  A    between atoms: C_19  and  N_25
REMARK   10  A    between atoms: C_20  and  N_25
REMARK                            x       y       z     vdW  Elec       q    Type
REMARK                         _______ _______ _______ _____ _____    ______ ____
ROOT
ATOM      1  C   UNL     1      -0.019   1.526   0.010  0.00  0.00    +0.000 C 
ATOM      2  C   UNL     1       0.002  -0.004   0.002  0.00  0.00    +0.000 C 
ATOM      3  C   UNL     1      -1.436  -0.531   0.020  0.00  0.00    +0.000 C 
ATOM      4  C   UNL     1      -1.390  -2.034  -0.233  0.00  0.00    +0.000 A 
ATOM      5  C   UNL     1      -0.278  -2.593  -0.764  0.00  0.00    +0.000 A 
ATOM      6  S   UNL     1      -0.651  -4.317  -0.882  0.00  0.00    +0.000 S 
ATOM      7  C   UNL     1      -2.259  -4.300  -0.236  0.00  0.00    +0.000 A 
ATOM      8  C   UNL     1      -2.470  -2.957   0.056  0.00  0.00    +0.000 A 
ATOM      9  C   UNL     1       0.973  -1.869  -1.153  0.00  0.00    +0.000 C 
ATOM     10  O   UNL     1       0.678  -0.463  -1.172  0.00  0.00    +0.000 OA
ATOM     11  C   UNL     1       0.743  -0.508   1.242  0.00  0.00    +0.000 C 
ENDROOT
BRANCH   7  12
ATOM     12  N   UNL     1      -3.124  -5.365  -0.055  0.00  0.00    +0.000 N 
ATOM     13  C   UNL     1      -2.741  -6.610  -0.401  0.00  0.00    +0.000 C 
ATOM     14  O   UNL     1      -1.638  -6.797  -0.871  0.00  0.00    +0.000 OA
ATOM     15  H   UNL     1      -4.060  -5.206   0.344  0.00  0.00    +0.000 HD
BRANCH  13  16
ATOM     16  C   UNL     1      -3.674  -7.759  -0.205  0.00  0.00    +0.000 C 
ATOM     17  O   UNL     1      -4.777  -7.572   0.265  0.00  0.00    +0.000 OA
ATOM     18  N   UNL     1      -3.292  -9.004  -0.551  0.00  0.00    +0.000 N 
ATOM     19  H   UNL     1      -2.355  -9.163  -0.950  0.00  0.00    +0.000 HD
BRANCH  18  20
ATOM     20  C   UNL     1      -4.207 -10.132  -0.359  0.00  0.00    +0.000 C 
BRANCH  20  21
ATOM     21  C   UNL     1      -3.532 -11.422  -0.829  0.00  0.00    +0.000 C 
BRANCH  21  24
ATOM     22  C   UNL     1      -5.623 -12.433  -1.512  0.00  0.00    +0.000 C 
ATOM     23  C   UNL     1      -3.761 -13.833  -0.851  0.00  0.00    +0.000 C 
ATOM     24  N   UNL     1      -4.459 -12.552  -0.609  0.00  0.00    +0.000 N 
ATOM     25  H   UNL     1      -4.789 -12.530   0.366  0.00  0.00    +0.000 HD
ENDBRANCH  21  24
ENDBRANCH  20  21
ENDBRANCH  18  20
ENDBRANCH  13  16
ENDBRANCH   7  12
BRANCH   8  26
ATOM     26  C   UNL     1      -3.734  -2.493   0.632  0.00  0.00    +0.000 C 
ATOM     27  O   UNL     1      -4.646  -2.150  -0.097  0.00  0.00    +0.000 OA
ATOM     28  O   UNL     1      -3.888  -2.445   1.972  0.00  0.00    +0.000 OA
ENDBRANCH   8  26
TORSDOF 6
ENDMDL
MODEL     1009
REMARK  Name = ZINC24983764
REMARK  8 active torsions:
REMARK  status: ('A' for Active; 'I' for Inactive)
REMARK    1  A    between atoms: C_1  and  S_2
REMARK    2  A    between atoms: S_2  and  N_5
REMARK    3  A    between atoms: N_5  and  C_6
REMARK    4  A    between atoms: C_11  and  C_12
REMARK    5  A    between atoms: N_14  and  C_15
REMARK    6  A    between atoms: C_15  and  C_16
REMARK    7  A    between atoms: C_16  and  N_17
REMARK    8  A    between atoms: C_21  and  C_24
REMARK                            x       y       z     vdW  Elec       q    Type
REMARK                         _______ _______ _______ _____ _____    ______ ____
ROOT
ATOM      1  C   UNL     1       1.580   9.971  -0.151  0.00  0.00    +0.000 C 
ATOM      2  O   UNL     1       0.559  10.608   0.022  0.00  0.00    +0.000 OA
ATOM      3  N   UNL     1       1.528   8.628  -0.250  0.00  0.00    +0.000 N 
ATOM      4  H   UNL     1       2.392   8.088  -0.397  0.00  0.00    +0.000 HD
ENDROOT
BRANCH   1  10
ATOM      5  C   UNL     1       2.935  12.065  -0.151  0.00  0.00    +0.000 A 
ATOM      6  C   UNL     1       4.161  12.711  -0.248  0.00  0.00    +0.000 A 
ATOM      7  C   UNL     1       5.315  11.980  -0.444  0.00  0.00    +0.000 A 
ATOM      8  C   UNL     1       5.261  10.597  -0.545  0.00  0.00    +0.000 A 
ATOM      9  C   UNL     1       4.052   9.938  -0.446  0.00  0.00    +0.000 A 
ATOM     10  C   UNL     1       2.876  10.667  -0.253  0.00  0.00    +0.000 A 
ATOM     11  F   UNL     1       6.397   9.891  -0.737  0.00  0.00    +0.000 F 
BRANCH   5  12
ATOM     12  N   UNL     1       1.772  12.801   0.046  0.00  0.00    +0.000 N 
ATOM     13  H   UNL     1       1.016  12.421   0.633  0.00  0.00    +0.000 HD
BRANCH  12  15
ATOM     14  C   UNL     1       1.742  13.974  -2.444  0.00  0.00    +0.000 C 
ATOM     15  S   UNL     1       1.603  14.288  -0.663  0.00  0.00    +0.000 S 
ATOM     16  O   UNL     1       0.281  14.695  -0.340  0.00  0.00    +0.000 OA
ATOM     17  O   UNL     1       2.723  15.036  -0.209  0.00  0.00    +0.000 OA
ENDBRANCH  12  15
ENDBRANCH   5  12
ENDBRANCH   1  10
BRANCH   3  18
ATOM     18  C   UNL     1       0.240   7.936  -0.149  0.00  0.00    +0.000 C 
BRANCH  18  19
ATOM     19  C   UNL     1       0.459   6.428  -0.293  0.00  0.00    +0.000 C 
BRANCH  19  20
ATOM     20  N   UNL     1      -0.828   5.736  -0.192  0.00  0.00    +0.000 N 
ATOM     21  C   UNL     1      -0.882   4.355  -0.293  0.00  0.00    +0.000 A 
ATOM     22  C   UNL     1       0.294   3.634  -0.492  0.00  0.00    +0.000 A 
ATOM     23  C   UNL     1       0.237   2.270  -0.592  0.00  0.00    +0.000 A 
ATOM     24  C   UNL     1      -1.015   1.643  -0.491  0.00  0.00    +0.000 A 
ATOM     25  C   UNL     1      -2.152   2.428  -0.297  0.00  0.00    +0.000 A 
ATOM     26  N   UNL     1      -2.052   3.738  -0.201  0.00  0.00    +0.000 NA
ATOM     27  H   UNL     1      -1.693   6.276  -0.045  0.00  0.00    +0.000 HD
BRANCH  24  28
ATOM     28  C   UNL     1      -1.123   0.219  -0.590  0.00  0.00    +0.000 C 
ATOM     29  N   UNL     1      -1.210  -0.911  -0.669  0.00  0.00    +0.000 NA
ENDBRANCH  24  28
ENDBRANCH  19  20
ENDBRANCH  18  19
ENDBRANCH   3  18
TORSDOF 7
ENDMDL
MODEL     1010
REMARK  Name = ZINC31217985
REMARK  9 active torsions:
REMARK  status: ('A' for Active; 'I' for Inactive)
REMARK    1  A    between atoms: C_1  and  S_2
REMARK    2  A    between atoms: S_2  and  N_5
REMARK    3  A    between atoms: N_5  and  C_6
REMARK    4  A    between atoms: C_6  and  C_7
REMARK    5  A    between atoms: C_7  and  C_8
REMARK    6  A    between atoms: C_8  and  N_9
REMARK    7  A    between atoms: C_10  and  C_12
REMARK    8  A    between atoms: N_20  and  S_21
REMARK    9  A    between atoms: S_21  and  C_24
REMARK                            x       y       z     vdW  Elec       q    Type
REMARK                         _______ _______ _______ _____ _____    ______ ____
ROOT
ATOM      1  N   UNL     1      -3.676   1.670   0.029  0.00  0.00    +0.000 N 
ATOM      2  C   UNL     1      -2.503   1.008   0.019  0.00  0.00    +0.000 C 
ATOM      3  O   UNL     1      -2.491  -0.208   0.013  0.00  0.00    +0.000 OA
ATOM      4  H   UNL     1      -3.686   2.700   0.034  0.00  0.00    +0.000 HD
ENDROOT
BRANCH   2   5
ATOM      5  C   UNL     1      -1.232   1.758   0.017  0.00  0.00    +0.000 A 
ATOM      6  C   UNL     1      -1.240   3.156   0.032  0.00  0.00    +0.000 A 
ATOM      7  C   UNL     1      -0.056   3.851   0.024  0.00  0.00    +0.000 A 
ATOM      8  C   UNL     1       1.168   3.170   0.008  0.00  0.00    +0.000 A 
ATOM      9  C   UNL     1       1.170   1.780   0.000  0.00  0.00    +0.000 A 
ATOM     10  C   UNL     1      -0.013   1.076   0.008  0.00  0.00    +0.000 A 
ATOM     11  C   UNL     1       2.606   1.304  -0.016  0.00  0.00    +0.000 C 
ATOM     12  C   UNL     1       3.439   2.596  -0.017  0.00  0.00    +0.000 C 
ATOM     13  N   UNL     1       2.458   3.685  -0.002  0.00  0.00    +0.000 N 
BRANCH  13  14
ATOM     14  S   UNL     1       2.834   5.298   0.004  0.00  0.00    +0.000 S 
ATOM     15  O   UNL     1       4.113   5.374  -0.610  0.00  0.00    +0.000 OA
ATOM     16  O   UNL     1       1.708   5.934  -0.585  0.00  0.00    +0.000 OA
ATOM     17  C   UNL     1       2.956   5.742   1.758  0.00  0.00    +0.000 C 
ENDBRANCH  13  14
ENDBRANCH   2   5
BRANCH   1  18
ATOM     18  C   UNL     1      -4.938   0.925   0.031  0.00  0.00    +0.000 C 
BRANCH  18  19
ATOM     19  C   UNL     1      -6.110   1.908   0.042  0.00  0.00    +0.000 C 
BRANCH  19  20
ATOM     20  C   UNL     1      -7.428   1.131   0.043  0.00  0.00    +0.000 C 
BRANCH  20  21
ATOM     21  N   UNL     1      -8.550   2.072   0.054  0.00  0.00    +0.000 NA
ATOM     22  H   UNL     1      -8.390   3.062   0.289  0.00  0.00    +0.000 HD
BRANCH  21  24
ATOM     23  C   UNL     1     -10.502   0.386   1.017  0.00  0.00    +0.000 C 
ATOM     24  S   UNL     1     -10.077   1.544  -0.313  0.00  0.00    +0.000 S 
ATOM     25  O   UNL     1     -10.892   2.705  -0.230  0.00  0.00    +0.000 OA
ATOM     26  O   UNL     1      -9.933   0.846  -1.542  0.00  0.00    +0.000 OA
ENDBRANCH  21  24
ENDBRANCH  20  21
ENDBRANCH  19  20
ENDBRANCH  18  19
ENDBRANCH   1  18
TORSDOF 7
ENDMDL
MODEL     1011
REMARK  Name = ZINC24628488
REMARK  7 active torsions:
REMARK  status: ('A' for Active; 'I' for Inactive)
REMARK    1  A    between atoms: C_3  and  C_13
REMARK    2  A    between atoms: C_4  and  O_7
REMARK    3  A    between atoms: O_7  and  C_8
REMARK    4  A    between atoms: C_8  and  C_9
REMARK    5  A    between atoms: N_15  and  N_16
REMARK    6  A    between atoms: C_17  and  C_19
REMARK    7  A    between atoms: C_21  and  N_24
REMARK                            x       y       z     vdW  Elec       q    Type
REMARK                         _______ _______ _______ _____ _____    ______ ____
ROOT
ATOM      1  C   UNL     1      -2.444   3.932   0.045  0.00  0.00    +0.000 C 
ATOM      2  O   UNL     1      -2.407   5.148   0.050  0.00  0.00    +0.000 OA
ATOM      3  N   UNL     1      -3.631   3.294   0.052  0.00  0.00    +0.000 N 
ATOM      4  H   UNL     1      -3.662   2.265   0.047  0.00  0.00    +0.000 HD
ENDROOT
BRANCH   1   7
ATOM      5  C   UNL     1      -0.013   1.076   0.008  0.00  0.00    +0.000 A 
ATOM      6  C   UNL     1      -1.217   1.757   0.017  0.00  0.00    +0.000 A 
ATOM      7  C   UNL     1      -1.189   3.156   0.029  0.00  0.00    +0.000 A 
ATOM      8  C   UNL     1       0.054   3.808   0.021  0.00  0.00    +0.000 A 
ATOM      9  N   UNL     1       1.176   3.108   0.007  0.00  0.00    +0.000 NA
ATOM     10  C   UNL     1       1.172   1.789   0.001  0.00  0.00    +0.000 A 
BRANCH   8  11
ATOM     11  O   UNL     1       0.104   5.161   0.026  0.00  0.00    +0.000 OA
BRANCH  11  12
ATOM     12  C   UNL     1       1.401   5.762   0.017  0.00  0.00    +0.000 C 
BRANCH  12  13
ATOM     13  C   UNL     1       1.257   7.285   0.025  0.00  0.00    +0.000 C 
ATOM     14  F   UNL     1       0.568   7.682   1.176  0.00  0.00    +0.000 F 
ATOM     15  F   UNL     1       2.526   7.873   0.016  0.00  0.00    +0.000 F 
ATOM     16  F   UNL     1       0.546   7.693  -1.108  0.00  0.00    +0.000 F 
ENDBRANCH  12  13
ENDBRANCH  11  12
ENDBRANCH   8  11
ENDBRANCH   1   7
BRANCH   3  17
ATOM     17  N   UNL     1      -4.822   4.031   0.067  0.00  0.00    +0.000 N 
ATOM     18  C   UNL     1      -6.009   3.393   0.075  0.00  0.00    +0.000 C 
ATOM     19  O   UNL     1      -6.046   2.177   0.069  0.00  0.00    +0.000 OA
ATOM     20  H   UNL     1      -4.791   5.061   0.072  0.00  0.00    +0.000 HD
BRANCH  18  21
ATOM     21  C   UNL     1      -7.256   4.165   0.091  0.00  0.00    +0.000 A 
ATOM     22  C   UNL     1      -8.535   3.647   0.094  0.00  0.00    +0.000 A 
ATOM     23  C   UNL     1      -9.417   4.732   0.113  0.00  0.00    +0.000 A 
ATOM     24  C   UNL     1      -8.678   5.868   0.111  0.00  0.00    +0.000 A 
ATOM     25  N   UNL     1      -7.364   5.537   0.098  0.00  0.00    +0.000 N 
ATOM     26  H   UNL     1      -6.577   6.201   0.094  0.00  0.00    +0.000 HD
BRANCH  23  27
ATOM     27  N   UNL     1     -10.895   4.654   0.126  0.00  0.00    +0.000 N 
ATOM     28  O   UNL     1     -11.559   5.675   0.137  0.00  0.00    +0.000 OA
ATOM     29  O   UNL     1     -11.447   3.568   0.125  0.00  0.00    +0.000 OA
ENDBRANCH  23  27
ENDBRANCH  18  21
ENDBRANCH   3  17
TORSDOF 7
ENDMDL
MODEL     1012
REMARK  Name = ZINC05677679
REMARK  8 active torsions:
REMARK  status: ('A' for Active; 'I' for Inactive)
REMARK    1  A    between atoms: C_1  and  C_2
REMARK    2  A    between atoms: C_2  and  N_9
REMARK    3  A    between atoms: N_9  and  C_10
REMARK    4  A    between atoms: C_10  and  N_12
REMARK    5  A    between atoms: N_12  and  C_13
REMARK    6  A    between atoms: C_13  and  C_14
REMARK    7  A    between atoms: C_14  and  N_22
REMARK    8  A    between atoms: C_15  and  N_22
REMARK                            x       y       z     vdW  Elec       q    Type
REMARK                         _______ _______ _______ _____ _____    ______ ____
ROOT
ATOM      1  N   UNL     1       2.174   1.008   3.447  0.00  0.00    +0.000 N 
ATOM      2  H   UNL     1       1.810   0.288   4.088  0.00  0.00    +0.000 HD
ENDROOT
BRANCH   1   3
ATOM      3  C   UNL     1       1.377   1.525   2.491  0.00  0.00    +0.000 C 
ATOM      4  S   UNL     1       1.983   2.721   1.426  0.00  0.00    +0.000 S 
BRANCH   3   5
ATOM      5  N   UNL     1       0.104   1.100   2.373  0.00  0.00    +0.000 N 
ATOM      6  H   UNL     1      -0.284   0.436   3.059  0.00  0.00    +0.000 HD
BRANCH   5   8
ATOM      7  C   UNL     1      -0.964   3.082   1.451  0.00  0.00    +0.000 C 
ATOM      8  C   UNL     1      -0.730   1.581   1.268  0.00  0.00    +0.000 C 
ATOM      9  C   UNL     1      -2.078   0.865   1.324  0.00  0.00    +0.000 C 
ATOM     10  C   UNL     1      -2.696   0.759  -0.094  0.00  0.00    +0.000 C 
ATOM     11  S   UNL     1      -1.169   0.389  -1.066  0.00  0.00    +0.000 S 
ATOM     12  O   UNL     1      -1.280   0.980  -2.353  0.00  0.00    +0.000 OA
ATOM     13  O   UNL     1      -0.866  -0.995  -0.951  0.00  0.00    +0.000 OA
ATOM     14  C   UNL     1       0.027   1.357  -0.056  0.00  0.00    +0.000 C 
ENDBRANCH   5   8
ENDBRANCH   3   5
ENDBRANCH   1   3
BRANCH   1  15
ATOM     15  C   UNL     1       3.558   1.470   3.576  0.00  0.00    +0.000 C 
BRANCH  15  16
ATOM     16  C   UNL     1       4.238   0.730   4.730  0.00  0.00    +0.000 C 
BRANCH  16  17
ATOM     17  N   UNL     1       5.631   1.200   4.852  0.00  0.00    +0.000 N 
ATOM     18  H   UNL     1       6.133   1.015   3.972  0.00  0.00    +0.000 HD
ATOM     19  H   UNL     1       5.635   2.214   5.035  0.00  0.00    +0.000 HD
BRANCH  17  20
ATOM     20  C   UNL     1       6.311   0.502   5.959  0.00  0.00    +0.000 C 
ATOM     21  C   UNL     1       7.828   0.501   5.707  0.00  0.00    +0.000 C 
ATOM     22  C   UNL     1       8.577   0.071   6.991  0.00  0.00    +0.000 C 
ATOM     23  S   UNL     1       7.430   0.608   8.325  0.00  0.00    +0.000 S 
ATOM     24  O   UNL     1       6.984  -0.537   9.040  0.00  0.00    +0.000 OA
ATOM     25  O   UNL     1       8.020   1.689   9.034  0.00  0.00    +0.000 OA
ATOM     26  C   UNL     1       6.044   1.250   7.296  0.00  0.00    +0.000 C 
ENDBRANCH  17  20
ENDBRANCH  16  17
ENDBRANCH  15  16
ENDBRANCH   1  15
TORSDOF 7
ENDMDL
MODEL     1013
REMARK  Name = ZINC22628329
REMARK  9 active torsions:
REMARK  status: ('A' for Active; 'I' for Inactive)
REMARK    1  A    between atoms: C_1  and  C_2
REMARK    2  A    between atoms: N_4  and  C_5
REMARK    3  A    between atoms: C_9  and  N_11
REMARK    4  A    between atoms: C_12  and  C_14
REMARK    5  A    between atoms: C_14  and  S_15
REMARK    6  A    between atoms: S_15  and  C_16
REMARK    7  A    between atoms: C_18  and  O_19
REMARK    8  A    between atoms: C_21  and  C_23
REMARK    9  A    between atoms: C_23  and  C_24
REMARK                            x       y       z     vdW  Elec       q    Type
REMARK                         _______ _______ _______ _____ _____    ______ ____
ROOT
ATOM      1  C   UNL     1      -4.745   2.103   0.550  0.00  0.00    +0.000 C 
ENDROOT
BRANCH   1   3
ATOM      2  N   UNL     1      -6.710   1.736  -0.908  0.00  0.00    +0.000 N 
ATOM      3  C   UNL     1      -6.230   2.117   0.293  0.00  0.00    +0.000 C 
ATOM      4  O   UNL     1      -6.993   2.471   1.166  0.00  0.00    +0.000 OA
ATOM      5  H   UNL     1      -6.060   1.504  -1.672  0.00  0.00    +0.000 HD
BRANCH   2  10
ATOM      6  C   UNL     1      -9.984   0.594  -2.143  0.00  0.00    +0.000 A 
ATOM      7  C   UNL     1     -10.829   1.506  -1.522  0.00  0.00    +0.000 A 
ATOM      8  C   UNL     1     -10.305   2.487  -0.703  0.00  0.00    +0.000 A 
ATOM      9  C   UNL     1      -8.941   2.566  -0.498  0.00  0.00    +0.000 A 
ATOM     10  C   UNL     1      -8.091   1.657  -1.116  0.00  0.00    +0.000 A 
ATOM     11  C   UNL     1      -8.613   0.673  -1.944  0.00  0.00    +0.000 A 
BRANCH   6  15
ATOM     12  C   UNL     1     -10.577  -2.721  -3.824  0.00  0.00    +0.000 C 
ATOM     13  C   UNL     1      -9.946  -1.621  -3.011  0.00  0.00    +0.000 C 
ATOM     14  O   UNL     1      -8.925  -1.833  -2.392  0.00  0.00    +0.000 OA
ATOM     15  N   UNL     1     -10.515  -0.400  -2.973  0.00  0.00    +0.000 N 
ATOM     16  H   UNL     1     -11.341  -0.198  -3.554  0.00  0.00    +0.000 HD
ENDBRANCH   6  15
ENDBRANCH   2  10
ENDBRANCH   1   3
BRANCH   1  17
ATOM     17  S   UNL     1      -4.420   2.663   2.240  0.00  0.00    +0.000 S 
BRANCH  17  18
ATOM     18  C   UNL     1      -2.662   2.550   2.266  0.00  0.00    +0.000 A 
ATOM     19  N   UNL     1      -1.986   2.894   3.398  0.00  0.00    +0.000 NA
ATOM     20  C   UNL     1      -0.638   2.811   3.425  0.00  0.00    +0.000 A 
ATOM     21  C   UNL     1       0.034   2.362   2.275  0.00  0.00    +0.000 A 
ATOM     22  C   UNL     1      -0.695   2.036   1.168  0.00  0.00    +0.000 A 
ATOM     23  N   UNL     1      -2.022   2.135   1.190  0.00  0.00    +0.000 NA
BRANCH  20  24
ATOM     24  O   UNL     1      -0.017   3.114   4.430  0.00  0.00    +0.000 OA
ATOM     25  H   UNL     1      -0.400   2.543   5.142  0.00  0.00    +0.000 HD
ENDBRANCH  20  24
BRANCH  22  26
ATOM     26  C   UNL     1       0.003   1.563  -0.081  0.00  0.00    +0.000 C 
BRANCH  26  27
ATOM     27  C   UNL     1       0.040   0.056  -0.096  0.00  0.00    +0.000 C 
ATOM     28  O   UNL     1      -0.453  -0.571   0.818  0.00  0.00    +0.000 OA
ATOM     29  N   UNL     1       0.620  -0.594  -1.124  0.00  0.00    +0.000 N 
ATOM     30  H   UNL     1       1.038  -0.060  -1.900  0.00  0.00    +0.000 HD
ATOM     31  H   UNL     1       0.645  -1.623  -1.134  0.00  0.00    +0.000 HD
ENDBRANCH  26  27
ENDBRANCH  22  26
ENDBRANCH  17  18
ENDBRANCH   1  17
TORSDOF 8
ENDMDL
MODEL     1014
REMARK  Name = ZINC27456712
REMARK  7 active torsions:
REMARK  status: ('A' for Active; 'I' for Inactive)
REMARK    1  A    between atoms: C_3  and  C_8
REMARK    2  A    between atoms: N_13  and  C_16
REMARK    3  A    between atoms: C_16  and  C_17
REMARK    4  A    between atoms: C_17  and  S_18
REMARK    5  A    between atoms: S_18  and  C_21
REMARK    6  A    between atoms: C_21  and  C_22
REMARK    7  A    between atoms: C_22  and  C_23
REMARK                            x       y       z     vdW  Elec       q    Type
REMARK                         _______ _______ _______ _____ _____    ______ ____
ROOT
ATOM      1  C   UNL     1      -1.054   0.710   2.197  0.00  0.00    +0.000 C 
ATOM      2  O   UNL     1      -0.761   1.251   3.245  0.00  0.00    +0.000 OA
ATOM      3  N   UNL     1      -1.579   1.434   1.189  0.00  0.00    +0.000 N 
ATOM      4  C   UNL     1      -1.863   0.817  -0.116  0.00  0.00    +0.000 C 
ATOM      5  C   UNL     1      -3.306   1.146  -0.511  0.00  0.00    +0.000 C 
ATOM      6  N   UNL     1      -3.507   2.600  -0.455  0.00  0.00    +0.000 NA
ATOM      7  C   UNL     1      -3.332   3.110   0.912  0.00  0.00    +0.000 C 
ATOM      8  C   UNL     1      -1.889   2.862   1.365  0.00  0.00    +0.000 C 
ENDROOT
BRANCH   1  11
ATOM      9  C   UNL     1       0.029  -2.579   0.741  0.00  0.00    +0.000 A 
ATOM     10  C   UNL     1      -0.179  -1.223   0.892  0.00  0.00    +0.000 A 
ATOM     11  C   UNL     1      -0.833  -0.742   2.027  0.00  0.00    +0.000 A 
ATOM     12  C   UNL     1      -1.283  -1.637   2.998  0.00  0.00    +0.000 A 
ATOM     13  C   UNL     1      -1.074  -2.993   2.833  0.00  0.00    +0.000 A 
ATOM     14  C   UNL     1      -0.419  -3.463   1.706  0.00  0.00    +0.000 A 
ATOM     15  F   UNL     1      -1.509  -3.862   3.772  0.00  0.00    +0.000 F 
ENDBRANCH   1  11
BRANCH   6  16
ATOM     16  C   UNL     1      -4.824   2.971  -0.990  0.00  0.00    +0.000 C 
BRANCH  16  17
ATOM     17  C   UNL     1      -5.100   4.446  -0.690  0.00  0.00    +0.000 C 
BRANCH  17  18
ATOM     18  S   UNL     1      -6.726   4.903  -1.351  0.00  0.00    +0.000 S 
ATOM     19  O   UNL     1      -6.679   4.805  -2.768  0.00  0.00    +0.000 OA
ATOM     20  O   UNL     1      -7.720   4.178  -0.641  0.00  0.00    +0.000 OA
BRANCH  18  21
ATOM     21  C   UNL     1      -6.862   6.655  -0.902  0.00  0.00    +0.000 C 
BRANCH  21  22
ATOM     22  C   UNL     1      -8.202   7.205  -1.395  0.00  0.00    +0.000 C 
BRANCH  22  23
ATOM     23  C   UNL     1      -8.316   8.661  -1.022  0.00  0.00    +0.000 C 
ATOM     24  O   UNL     1      -7.414   9.205  -0.420  0.00  0.00    +0.000 OA
ATOM     25  N   UNL     1      -9.419   9.358  -1.357  0.00  0.00    +0.000 N 
ATOM     26  H   UNL     1     -10.185   8.897  -1.868  0.00  0.00    +0.000 HD
ATOM     27  H   UNL     1      -9.497  10.353  -1.101  0.00  0.00    +0.000 HD
ENDBRANCH  22  23
ENDBRANCH  21  22
ENDBRANCH  18  21
ENDBRANCH  17  18
ENDBRANCH  16  17
ENDBRANCH   6  16
TORSDOF 7
ENDMDL
MODEL     1015
REMARK  Name = ZINC15825977
REMARK  10 active torsions:
REMARK  status: ('A' for Active; 'I' for Inactive)
REMARK    1  A    between atoms: C_1  and  C_2
REMARK    2  A    between atoms: C_7  and  S_8
REMARK    3  A    between atoms: S_8  and  N_11
REMARK    4  A    between atoms: N_11  and  C_12
REMARK    5  A    between atoms: N_11  and  C_13
REMARK    6  A    between atoms: C_13  and  C_14
REMARK    7  A    between atoms: N_16  and  C_17
REMARK    8  A    between atoms: C_17  and  C_18
REMARK    9  A    between atoms: C_18  and  O_19
REMARK   10  A    between atoms: O_19  and  C_20
REMARK                            x       y       z     vdW  Elec       q    Type
REMARK                         _______ _______ _______ _____ _____    ______ ____
ROOT
ATOM      1  S   UNL     1       2.701   5.482  -0.591  0.00  0.00    +0.000 S 
ATOM      2  O   UNL     1       3.791   5.203  -1.460  0.00  0.00    +0.000 OA
ATOM      3  O   UNL     1       1.448   5.955  -1.068  0.00  0.00    +0.000 OA
ENDROOT
BRANCH   1  10
ATOM      4  C   UNL     1       4.822   3.837   0.791  0.00  0.00    +0.000 C 
ATOM      5  C   UNL     1       3.413   3.312   0.901  0.00  0.00    +0.000 A 
ATOM      6  C   UNL     1       3.164   2.147   1.603  0.00  0.00    +0.000 A 
ATOM      7  C   UNL     1       1.869   1.666   1.701  0.00  0.00    +0.000 A 
ATOM      8  C   UNL     1       0.821   2.357   1.094  0.00  0.00    +0.000 A 
ATOM      9  C   UNL     1       1.078   3.523   0.395  0.00  0.00    +0.000 A 
ATOM     10  C   UNL     1       2.374   3.998   0.300  0.00  0.00    +0.000 A 
ATOM     11  O   UNL     1      -0.446   1.875   1.197  0.00  0.00    +0.000 OA
ATOM     12  C   UNL     1      -0.591   0.453   1.249  0.00  0.00    +0.000 C 
ATOM     13  C   UNL     1       0.401  -0.122   2.227  0.00  0.00    +0.000 C 
ATOM     14  O   UNL     1       0.130  -1.126   2.850  0.00  0.00    +0.000 OA
ATOM     15  N   UNL     1       1.594   0.486   2.407  0.00  0.00    +0.000 N 
ATOM     16  H   UNL     1       2.291   0.089   3.054  0.00  0.00    +0.000 HD
ENDBRANCH   1  10
BRANCH   1  17
ATOM     17  N   UNL     1       3.243   6.601   0.503  0.00  0.00    +0.000 NA
ATOM     18  C   UNL     1       2.285   7.357   1.313  0.00  0.00    +0.000 C 
BRANCH  17  19
ATOM     19  C   UNL     1       4.681   6.834   0.662  0.00  0.00    +0.000 C 
BRANCH  19  20
ATOM     20  C   UNL     1       5.080   8.060  -0.118  0.00  0.00    +0.000 C 
ATOM     21  O   UNL     1       4.245   8.679  -0.744  0.00  0.00    +0.000 OA
ATOM     22  N   UNL     1       6.364   8.470  -0.119  0.00  0.00    +0.000 N 
ATOM     23  H   UNL     1       7.072   7.945   0.412  0.00  0.00    +0.000 HD
BRANCH  22  24
ATOM     24  C   UNL     1       6.751   9.662  -0.877  0.00  0.00    +0.000 C 
BRANCH  24  25
ATOM     25  C   UNL     1       8.253   9.906  -0.712  0.00  0.00    +0.000 C 
BRANCH  25  26
ATOM     26  O   UNL     1       8.979   8.828  -1.306  0.00  0.00    +0.000 OA
ATOM     27  C   UNL     1      10.398   8.957  -1.206  0.00  0.00    +0.000 C 
ENDBRANCH  25  26
ENDBRANCH  24  25
ENDBRANCH  22  24
ENDBRANCH  19  20
ENDBRANCH  17  19
ENDBRANCH   1  17
TORSDOF 7
ENDMDL
MODEL     1016
REMARK  Name = ZINC22962643
REMARK  12 active torsions:
REMARK  status: ('A' for Active; 'I' for Inactive)
REMARK    1  A    between atoms: C_1  and  C_2
REMARK    2  A    between atoms: C_6  and  C_8
REMARK    3  A    between atoms: N_10  and  C_11
REMARK    4  A    between atoms: N_10  and  C_15
REMARK    5  A    between atoms: C_11  and  C_12
REMARK    6  A    between atoms: C_12  and  O_13
REMARK    7  A    between atoms: O_13  and  C_14
REMARK    8  A    between atoms: C_16  and  N_27
REMARK    9  A    between atoms: N_17  and  C_23
REMARK   10  A    between atoms: C_23  and  C_24
REMARK   11  A    between atoms: C_24  and  C_25
REMARK   12  A    between atoms: C_24  and  C_26
REMARK                            x       y       z     vdW  Elec       q    Type
REMARK                         _______ _______ _______ _____ _____    ______ ____
ROOT
ATOM      1  C   UNL     1       1.112   2.924   0.042  0.00  0.00    +0.000 A 
ATOM      2  C   UNL     1       0.617   2.254   1.143  0.00  0.00    +0.000 A 
ATOM      3  N   UNL     1      -0.559   1.551   1.029  0.00  0.00    +0.000 N 
ATOM      4  C   UNL     1      -1.223   1.520  -0.141  0.00  0.00    +0.000 A 
ATOM      5  O   UNL     1      -2.264   0.897  -0.220  0.00  0.00    +0.000 OA
ATOM      6  N   UNL     1      -0.754   2.162  -1.225  0.00  0.00    +0.000 N 
ATOM      7  C   UNL     1       0.393   2.866  -1.167  0.00  0.00    +0.000 A 
ATOM      8  O   UNL     1       0.807   3.447  -2.156  0.00  0.00    +0.000 OA
ATOM      9  H   UNL     1      -1.279   2.115  -2.111  0.00  0.00    +0.000 HD
ENDROOT
BRANCH   2  10
ATOM     10  N   UNL     1       1.293   2.290   2.339  0.00  0.00    +0.000 N 
ATOM     11  H   UNL     1       2.173   2.820   2.413  0.00  0.00    +0.000 HD
ATOM     12  H   UNL     1       0.921   1.789   3.159  0.00  0.00    +0.000 HD
ENDBRANCH   2  10
BRANCH   1  15
ATOM     13  C   UNL     1       2.298   4.997   0.016  0.00  0.00    +0.000 C 
ATOM     14  O   UNL     1       3.342   5.619   0.005  0.00  0.00    +0.000 OA
ATOM     15  N   UNL     1       2.315   3.653   0.127  0.00  0.00    +0.000 N 
BRANCH  13  21
ATOM     16  C   UNL     1      -2.562   4.838   0.102  0.00  0.00    +0.000 C 
ATOM     17  C   UNL     1      -1.299   5.644  -0.054  0.00  0.00    +0.000 A 
ATOM     18  C   UNL     1      -1.383   7.007  -0.289  0.00  0.00    +0.000 A 
ATOM     19  C   UNL     1      -0.218   7.745  -0.430  0.00  0.00    +0.000 A 
ATOM     20  C   UNL     1       0.998   7.088  -0.326  0.00  0.00    +0.000 A 
ATOM     21  C   UNL     1       1.007   5.715  -0.094  0.00  0.00    +0.000 A 
ATOM     22  N   UNL     1      -0.132   5.045   0.036  0.00  0.00    +0.000 NA
ENDBRANCH  13  21
BRANCH  15  23
ATOM     23  C   UNL     1       3.584   2.951   0.335  0.00  0.00    +0.000 C 
BRANCH  23  24
ATOM     24  C   UNL     1       4.128   2.470  -1.011  0.00  0.00    +0.000 C 
BRANCH  24  25
ATOM     25  O   UNL     1       4.450   3.600  -1.826  0.00  0.00    +0.000 OA
ATOM     26  C   UNL     1       4.970   3.259  -3.112  0.00  0.00    +0.000 C 
ENDBRANCH  24  25
ENDBRANCH  23  24
ENDBRANCH  15  23
ENDBRANCH   1  15
BRANCH   3  27
ATOM     27  C   UNL     1      -1.095   0.836   2.190  0.00  0.00    +0.000 C 
BRANCH  27  28
ATOM     28  C   UNL     1      -2.023   1.764   2.977  0.00  0.00    +0.000 C 
ATOM     29  C   UNL     1      -2.679   0.982   4.116  0.00  0.00    +0.000 C 
ATOM     30  C   UNL     1      -1.211   2.924   3.556  0.00  0.00    +0.000 C 
ENDBRANCH  27  28
ENDBRANCH   3  27
TORSDOF 8
ENDMDL
MODEL     1017
REMARK  Name = ZINC04661650
REMARK  7 active torsions:
REMARK  status: ('A' for Active; 'I' for Inactive)
REMARK    1  A    between atoms: C_3  and  N_18
REMARK    2  A    between atoms: C_6  and  N_7
REMARK    3  A    between atoms: C_8  and  C_10
REMARK    4  A    between atoms: C_15  and  C_16
REMARK    5  A    between atoms: C_23  and  C_24
REMARK    6  A    between atoms: C_23  and  N_27
REMARK    7  A    between atoms: C_24  and  O_25
REMARK                            x       y       z     vdW  Elec       q    Type
REMARK                         _______ _______ _______ _____ _____    ______ ____
ROOT
ATOM      1  C   UNL     1      -0.951   0.392  -0.035  0.00  0.00    +0.000 A 
ATOM      2  C   UNL     1      -0.784   1.761   0.024  0.00  0.00    +0.000 A 
ATOM      3  C   UNL     1       0.455   2.322  -0.258  0.00  0.00    +0.000 A 
ATOM      4  C   UNL     1       1.525   1.505  -0.600  0.00  0.00    +0.000 A 
ATOM      5  C   UNL     1       1.357   0.136  -0.659  0.00  0.00    +0.000 A 
ATOM      6  C   UNL     1       0.119  -0.424  -0.377  0.00  0.00    +0.000 A 
ENDROOT
BRANCH   3   7
ATOM      7  N   UNL     1       0.624   3.709  -0.199  0.00  0.00    +0.000 N 
ATOM      8  C   UNL     1      -0.333   4.395  -1.078  0.00  0.00    +0.000 C 
ATOM      9  C   UNL     1      -0.168   5.909  -0.924  0.00  0.00    +0.000 C 
ATOM     10  C   UNL     1       2.170   5.599  -0.378  0.00  0.00    +0.000 C 
ATOM     11  C   UNL     1       2.005   4.086  -0.532  0.00  0.00    +0.000 C 
ATOM     12  N   UNL     1       1.218   6.277  -1.284  0.00  0.00    +0.000 N 
ATOM     13  H   UNL     1       1.404   5.976  -2.251  0.00  0.00    +0.000 HD
BRANCH  12  14
ATOM     14  C   UNL     1       1.391   7.742  -1.195  0.00  0.00    +0.000 C 
BRANCH  14  15
ATOM     15  C   UNL     1       2.637   8.138  -1.990  0.00  0.00    +0.000 C 
BRANCH  15  16
ATOM     16  O   UNL     1       2.442   7.821  -3.370  0.00  0.00    +0.000 OA
ATOM     17  H   UNL     1       1.659   8.317  -3.716  0.00  0.00    +0.000 HD
ENDBRANCH  15  16
ENDBRANCH  14  15
ENDBRANCH  12  14
ENDBRANCH   3   7
BRANCH   6  18
ATOM     18  N   UNL     1      -0.051  -1.814  -0.438  0.00  0.00    +0.000 N 
ATOM     19  C   UNL     1      -1.216  -2.332  -0.876  0.00  0.00    +0.000 C 
ATOM     20  O   UNL     1      -2.145  -1.599  -1.139  0.00  0.00    +0.000 OA
ATOM     21  H   UNL     1       0.713  -2.440  -0.147  0.00  0.00    +0.000 HD
BRANCH  19  22
ATOM     22  C   UNL     1      -1.363  -3.823  -1.040  0.00  0.00    +0.000 C 
ATOM     23  C   UNL     1      -1.139  -4.513   0.308  0.00  0.00    +0.000 C 
ATOM     24  C   UNL     1      -1.539  -5.957   0.222  0.00  0.00    +0.000 C 
ATOM     25  C   UNL     1      -2.286  -6.448  -0.714  0.00  0.00    +0.000 C 
ATOM     26  C   UNL     1      -2.848  -5.645  -1.850  0.00  0.00    +0.000 C 
ATOM     27  C   UNL     1      -2.782  -4.151  -1.522  0.00  0.00    +0.000 C 
BRANCH  27  28
ATOM     28  C   UNL     1      -3.095  -3.348  -2.758  0.00  0.00    +0.000 C 
ATOM     29  O   UNL     1      -2.271  -2.589  -3.210  0.00  0.00    +0.000 OA
ATOM     30  O   UNL     1      -4.289  -3.475  -3.357  0.00  0.00    +0.000 OA
ENDBRANCH  27  28
ENDBRANCH  19  22
ENDBRANCH   6  18
TORSDOF 7
ENDMDL
MODEL     1018
REMARK  Name = ZINC31851633
REMARK  10 active torsions:
REMARK  status: ('A' for Active; 'I' for Inactive)
REMARK    1  A    between atoms: C_4  and  C_7
REMARK    2  A    between atoms: C_7  and  C_8
REMARK    3  A    between atoms: C_7  and  P_23
REMARK    4  A    between atoms: C_8  and  C_9
REMARK    5  A    between atoms: C_9  and  C_10
REMARK    6  A    between atoms: C_9  and  C_21
REMARK    7  A    between atoms: C_10  and  N_11
REMARK    8  A    between atoms: C_19  and  N_20
REMARK    9  A    between atoms: C_21  and  O_22
REMARK   10  A    between atoms: P_23  and  O_26
REMARK                            x       y       z     vdW  Elec       q    Type
REMARK                         _______ _______ _______ _____ _____    ______ ____
ROOT
ATOM      1  C   UNL     1       4.811   4.216   1.046  0.00  0.00    +0.000 C 
ENDROOT
BRANCH   1   2
ATOM      2  C   UNL     1       4.519   5.163   2.212  0.00  0.00    +0.000 C 
BRANCH   2   3
ATOM      3  N   UNL     1       5.650   6.076   2.393  0.00  0.00    +0.000 N 
ATOM      4  C   UNL     1       6.687   5.914   3.264  0.00  0.00    +0.000 A 
ATOM      5  N   UNL     1       7.515   6.912   3.160  0.00  0.00    +0.000 NA
ATOM      6  C   UNL     1       7.059   7.781   2.227  0.00  0.00    +0.000 A 
ATOM      7  C   UNL     1       5.857   7.256   1.724  0.00  0.00    +0.000 A 
ATOM      8  N   UNL     1       5.201   7.928   0.783  0.00  0.00    +0.000 NA
ATOM      9  C   UNL     1       5.668   9.071   0.327  0.00  0.00    +0.000 A 
ATOM     10  N   UNL     1       6.793   9.604   0.769  0.00  0.00    +0.000 NA
ATOM     11  C   UNL     1       7.517   9.005   1.708  0.00  0.00    +0.000 A 
BRANCH  11  12
ATOM     12  N   UNL     1       8.693   9.571   2.165  0.00  0.00    +0.000 N 
ATOM     13  H   UNL     1       9.238   9.089   2.894  0.00  0.00    +0.000 HD
ATOM     14  H   UNL     1       9.023  10.468   1.781  0.00  0.00    +0.000 HD
ENDBRANCH  11  12
ENDBRANCH   2   3
ENDBRANCH   1   2
BRANCH   1  15
ATOM     15  C   UNL     1       4.896   5.019  -0.254  0.00  0.00    +0.000 C 
BRANCH  15  16
ATOM     16  O   UNL     1       6.056   5.854  -0.224  0.00  0.00    +0.000 OA
ATOM     17  H   UNL     1       6.866   5.292  -0.130  0.00  0.00    +0.000 HD
ENDBRANCH  15  16
ENDBRANCH   1  15
BRANCH   1  18
ATOM     18  C   UNL     1       3.688   3.183   0.934  0.00  0.00    +0.000 C 
BRANCH  18  19
ATOM     19  C   UNL     1       3.677   2.305   2.188  0.00  0.00    +0.000 C 
BRANCH  19  23
ATOM     20  C   UNL     1       0.281  -0.283   2.082  0.00  0.00    +0.000 A 
ATOM     21  C   UNL     1       1.057  -0.115   0.951  0.00  0.00    +0.000 A 
ATOM     22  C   UNL     1       2.155   0.723   0.984  0.00  0.00    +0.000 A 
ATOM     23  C   UNL     1       2.479   1.392   2.150  0.00  0.00    +0.000 A 
ATOM     24  C   UNL     1       1.702   1.224   3.281  0.00  0.00    +0.000 A 
ATOM     25  C   UNL     1       0.603   0.387   3.247  0.00  0.00    +0.000 A 
ENDBRANCH  19  23
BRANCH  19  26
ATOM     26  P   UNL     1       5.201   1.306   2.244  0.00  0.00    +0.000 P 
ATOM     27  O   UNL     1       6.370   2.199   2.405  0.00  0.00    +0.000 OA
ATOM     28  O   UNL     1       5.128   0.286   3.487  0.00  0.00    +0.000 OA
BRANCH  26  29
ATOM     29  O   UNL     1       5.347   0.473   0.874  0.00  0.00    +0.000 OA
ATOM     30  H   UNL     1       5.392   1.099   0.109  0.00  0.00    +0.000 HD
ENDBRANCH  26  29
ENDBRANCH  19  26
ENDBRANCH  18  19
ENDBRANCH   1  18
TORSDOF 10
ENDMDL
MODEL     1019
REMARK  Name = ZINC07073163
REMARK  7 active torsions:
REMARK  status: ('A' for Active; 'I' for Inactive)
REMARK    1  A    between atoms: N_7  and  C_11
REMARK    2  A    between atoms: C_11  and  C_12
REMARK    3  A    between atoms: C_12  and  C_13
REMARK    4  A    between atoms: N_15  and  N_16
REMARK    5  A    between atoms: C_17  and  C_19
REMARK    6  A    between atoms: N_21  and  C_22
REMARK    7  A    between atoms: C_22  and  C_23
REMARK                            x       y       z     vdW  Elec       q    Type
REMARK                         _______ _______ _______ _____ _____    ______ ____
ROOT
ATOM      1  C   UNL     1       5.570   0.547  -1.489  0.00  0.00    +0.000 C 
ATOM      2  O   UNL     1       6.186   0.525  -0.444  0.00  0.00    +0.000 OA
ATOM      3  N   UNL     1       6.233   0.535  -2.662  0.00  0.00    +0.000 N 
ATOM      4  H   UNL     1       5.710   0.554  -3.550  0.00  0.00    +0.000 HD
ENDROOT
BRANCH   3   5
ATOM      5  N   UNL     1       7.633   0.496  -2.675  0.00  0.00    +0.000 N 
ATOM      6  C   UNL     1       8.297   0.484  -3.849  0.00  0.00    +0.000 C 
ATOM      7  O   UNL     1       7.681   0.506  -4.894  0.00  0.00    +0.000 OA
ATOM      8  H   UNL     1       8.156   0.477  -1.788  0.00  0.00    +0.000 HD
BRANCH   6   9
ATOM      9  C   UNL     1       9.790   0.442  -3.862  0.00  0.00    +0.000 C 
ATOM     10  O   UNL     1      10.406   0.419  -2.817  0.00  0.00    +0.000 OA
ATOM     11  N   UNL     1      10.454   0.430  -5.036  0.00  0.00    +0.000 N 
ATOM     12  H   UNL     1       9.931   0.449  -5.923  0.00  0.00    +0.000 HD
BRANCH  11  13
ATOM     13  C   UNL     1      11.918   0.389  -5.049  0.00  0.00    +0.000 C 
BRANCH  13  14
ATOM     14  C   UNL     1      12.407   0.383  -6.474  0.00  0.00    +0.000 A 
ATOM     15  C   UNL     1      12.693   1.470  -7.213  0.00  0.00    +0.000 A 
ATOM     16  C   UNL     1      13.114   1.006  -8.480  0.00  0.00    +0.000 A 
ATOM     17  C   UNL     1      13.061  -0.338  -8.440  0.00  0.00    +0.000 A 
ATOM     18  O   UNL     1      12.637  -0.710  -7.221  0.00  0.00    +0.000 OA
ENDBRANCH  13  14
ENDBRANCH  11  13
ENDBRANCH   6   9
ENDBRANCH   3   5
BRANCH   1  19
ATOM     19  C   UNL     1       4.064   0.589  -1.475  0.00  0.00    +0.000 C 
BRANCH  19  20
ATOM     20  C   UNL     1       3.567   0.596  -0.028  0.00  0.00    +0.000 C 
BRANCH  20  27
ATOM     21  C   UNL     1       0.568   4.060   0.018  0.00  0.00    +0.000 A 
ATOM     22  C   UNL     1      -0.749   3.632   0.029  0.00  0.00    +0.000 A 
ATOM     23  C   UNL     1      -1.043   2.283   0.029  0.00  0.00    +0.000 A 
ATOM     24  C   UNL     1      -0.016   1.351   0.009  0.00  0.00    +0.000 A 
ATOM     25  C   UNL     1       1.310   1.784  -0.001  0.00  0.00    +0.000 A 
ATOM     26  C   UNL     1       1.597   3.139   0.004  0.00  0.00    +0.000 A 
ATOM     27  N   UNL     1       2.103   0.636  -0.015  0.00  0.00    +0.000 N 
ATOM     28  C   UNL     1       1.276  -0.428  -0.012  0.00  0.00    +0.000 A 
ATOM     29  O   UNL     1       1.629  -1.591  -0.021  0.00  0.00    +0.000 OA
ATOM     30  O   UNL     1       0.002  -0.004   0.002  0.00  0.00    +0.000 OA
ENDBRANCH  20  27
ENDBRANCH  19  20
ENDBRANCH   1  19
TORSDOF 7
ENDMDL
MODEL     1020
REMARK  Name = ZINC25631236
REMARK  10 active torsions:
REMARK  status: ('A' for Active; 'I' for Inactive)
REMARK    1  A    between atoms: C_1  and  C_2
REMARK    2  A    between atoms: C_3  and  C_26
REMARK    3  A    between atoms: C_4  and  C_23
REMARK    4  A    between atoms: C_5  and  S_9
REMARK    5  A    between atoms: C_7  and  C_8
REMARK    6  A    between atoms: S_9  and  C_10
REMARK    7  A    between atoms: C_10  and  C_11
REMARK    8  A    between atoms: C_11  and  O_13
REMARK    9  A    between atoms: O_13  and  C_14
REMARK   10  A    between atoms: C_14  and  C_15
REMARK                            x       y       z     vdW  Elec       q    Type
REMARK                         _______ _______ _______ _____ _____    ______ ____
ROOT
ATOM      1  C   UNL     1      -2.859   1.533  -0.056  0.00  0.00    +0.000 C 
ATOM      2  C   UNL     1      -2.085   1.785   1.212  0.00  0.00    +0.000 A 
ATOM      3  C   UNL     1      -2.736   2.226   2.350  0.00  0.00    +0.000 A 
ATOM      4  C   UNL     1      -1.978   2.453   3.505  0.00  0.00    +0.000 A 
ATOM      5  C   UNL     1      -0.592   2.219   3.461  0.00  0.00    +0.000 A 
ATOM      6  N   UNL     1      -0.021   1.791   2.345  0.00  0.00    +0.000 NA
ATOM      7  C   UNL     1      -0.718   1.572   1.248  0.00  0.00    +0.000 A 
ATOM      8  C   UNL     1      -0.013   1.086   0.008  0.00  0.00    +0.000 C 
ATOM      9  C   UNL     1      -4.224   2.463   2.345  0.00  0.00    +0.000 C 
ENDROOT
BRANCH   4  10
ATOM     10  C   UNL     1      -2.620   2.929   4.743  0.00  0.00    +0.000 C 
ATOM     11  O   UNL     1      -2.726   4.122   4.953  0.00  0.00    +0.000 OA
ATOM     12  N   UNL     1      -3.091   2.042   5.642  0.00  0.00    +0.000 N 
ATOM     13  H   UNL     1      -3.001   1.031   5.464  0.00  0.00    +0.000 HD
ATOM     14  H   UNL     1      -3.539   2.374   6.507  0.00  0.00    +0.000 HD
ENDBRANCH   4  10
BRANCH   5  15
ATOM     15  S   UNL     1       0.389   2.495   4.898  0.00  0.00    +0.000 S 
BRANCH  15  16
ATOM     16  C   UNL     1       2.020   2.041   4.258  0.00  0.00    +0.000 C 
BRANCH  16  17
ATOM     17  C   UNL     1       3.050   2.204   5.345  0.00  0.00    +0.000 C 
ATOM     18  O   UNL     1       2.716   2.587   6.441  0.00  0.00    +0.000 OA
BRANCH  17  19
ATOM     19  O   UNL     1       4.339   1.923   5.097  0.00  0.00    +0.000 OA
BRANCH  19  20
ATOM     20  C   UNL     1       5.276   2.103   6.191  0.00  0.00    +0.000 C 
BRANCH  20  21
ATOM     21  C   UNL     1       6.664   1.741   5.729  0.00  0.00    +0.000 C 
ATOM     22  O   UNL     1       6.845   1.369   4.589  0.00  0.00    +0.000 OA
ATOM     23  N   UNL     1       7.703   1.832   6.582  0.00  0.00    +0.000 N 
ATOM     24  C   UNL     1       9.090   1.499   6.235  0.00  0.00    +0.000 C 
ATOM     25  C   UNL     1       9.957   2.159   7.333  0.00  0.00    +0.000 C 
ATOM     26  C   UNL     1       8.965   2.224   8.518  0.00  0.00    +0.000 C 
ATOM     27  C   UNL     1       7.602   2.233   7.860  0.00  0.00    +0.000 C 
ATOM     28  O   UNL     1       6.569   2.555   8.408  0.00  0.00    +0.000 OA
ENDBRANCH  20  21
ENDBRANCH  19  20
ENDBRANCH  17  19
ENDBRANCH  16  17
ENDBRANCH  15  16
ENDBRANCH   5  15
TORSDOF 7
ENDMDL
MODEL     1021
REMARK  Name = ZINC31576049
REMARK  11 active torsions:
REMARK  status: ('A' for Active; 'I' for Inactive)
REMARK    1  A    between atoms: C_1  and  N_2
REMARK    2  A    between atoms: N_2  and  C_3
REMARK    3  A    between atoms: N_2  and  C_4
REMARK    4  A    between atoms: C_4  and  C_5
REMARK    5  A    between atoms: C_5  and  C_6
REMARK    6  A    between atoms: C_5  and  O_26
REMARK    7  A    between atoms: C_6  and  N_7
REMARK    8  A    between atoms: N_7  and  C_8
REMARK    9  A    between atoms: C_11  and  S_17
REMARK   10  A    between atoms: C_13  and  N_14
REMARK   11  A    between atoms: S_17  and  N_20
REMARK                            x       y       z     vdW  Elec       q    Type
REMARK                         _______ _______ _______ _____ _____    ______ ____
ROOT
ATOM      1  C   UNL     1      -2.150   2.547   3.820  0.00  0.00    +0.000 A 
ATOM      2  C   UNL     1      -1.221   3.407   3.248  0.00  0.00    +0.000 A 
ATOM      3  C   UNL     1      -0.710   3.134   1.995  0.00  0.00    +0.000 A 
ATOM      4  C   UNL     1      -1.130   2.012   1.304  0.00  0.00    +0.000 A 
ATOM      5  C   UNL     1      -2.055   1.154   1.871  0.00  0.00    +0.000 A 
ATOM      6  C   UNL     1      -2.566   1.418   3.127  0.00  0.00    +0.000 A 
ENDROOT
BRANCH   6   7
ATOM      7  N   UNL     1      -3.555   0.498   3.732  0.00  0.00    +0.000 N 
ATOM      8  O   UNL     1      -3.451  -0.704   3.565  0.00  0.00    +0.000 OA
ATOM      9  O   UNL     1      -4.472   0.944   4.398  0.00  0.00    +0.000 OA
ENDBRANCH   6   7
BRANCH   4  10
ATOM     10  S   UNL     1      -0.480   1.671  -0.298  0.00  0.00    +0.000 S 
ATOM     11  O   UNL     1      -0.618   0.272  -0.502  0.00  0.00    +0.000 OA
ATOM     12  O   UNL     1       0.775   2.333  -0.376  0.00  0.00    +0.000 OA
BRANCH  10  13
ATOM     13  N   UNL     1      -1.474   2.410  -1.397  0.00  0.00    +0.000 NA
ATOM     14  C   UNL     1      -2.631   1.702  -1.968  0.00  0.00    +0.000 C 
ATOM     15  C   UNL     1      -3.868   2.602  -1.814  0.00  0.00    +0.000 C 
ATOM     16  O   UNL     1      -3.580   3.892  -2.361  0.00  0.00    +0.000 OA
ATOM     17  C   UNL     1      -2.526   4.588  -1.692  0.00  0.00    +0.000 C 
ATOM     18  C   UNL     1      -1.224   3.792  -1.835  0.00  0.00    +0.000 C 
ENDBRANCH  10  13
ENDBRANCH   4  10
BRANCH   1  19
ATOM     19  N   UNL     1      -2.664   2.817   5.091  0.00  0.00    +0.000 N 
ATOM     20  H   UNL     1      -3.283   2.134   5.552  0.00  0.00    +0.000 HD
BRANCH  19  21
ATOM     21  C   UNL     1      -2.325   4.071   5.767  0.00  0.00    +0.000 C 
BRANCH  21  22
ATOM     22  C   UNL     1      -3.013   4.116   7.133  0.00  0.00    +0.000 C 
BRANCH  22  23
ATOM     23  O   UNL     1      -4.429   4.039   6.956  0.00  0.00    +0.000 OA
ATOM     24  H   UNL     1      -4.736   4.803   6.406  0.00  0.00    +0.000 HD
ENDBRANCH  22  23
BRANCH  22  25
ATOM     25  C   UNL     1      -2.658   5.426   7.840  0.00  0.00    +0.000 C 
BRANCH  25  27
ATOM     26  C   UNL     1      -2.579   4.388  10.026  0.00  0.00    +0.000 C 
ATOM     27  N   UNL     1      -3.220   5.417   9.197  0.00  0.00    +0.000 N 
ATOM     28  C   UNL     1      -3.107   6.742   9.822  0.00  0.00    +0.000 C 
ATOM     29  H   UNL     1      -4.221   5.186   9.124  0.00  0.00    +0.000 HD
ENDBRANCH  25  27
ENDBRANCH  22  25
ENDBRANCH  21  22
ENDBRANCH  19  21
ENDBRANCH   1  19
TORSDOF 9
ENDMDL
MODEL     1022
REMARK  Name = ZINC29577773
REMARK  11 active torsions:
REMARK  status: ('A' for Active; 'I' for Inactive)
REMARK    1  A    between atoms: C_1  and  C_2
REMARK    2  A    between atoms: C_2  and  C_3
REMARK    3  A    between atoms: C_2  and  N_20
REMARK    4  A    between atoms: N_5  and  C_6
REMARK    5  A    between atoms: C_8  and  C_16
REMARK    6  A    between atoms: C_10  and  C_12
REMARK    7  A    between atoms: C_12  and  O_14
REMARK    8  A    between atoms: O_14  and  C_15
REMARK    9  A    between atoms: C_16  and  O_18
REMARK   10  A    between atoms: O_18  and  C_19
REMARK   11  A    between atoms: C_25  and  C_26
REMARK                            x       y       z     vdW  Elec       q    Type
REMARK                         _______ _______ _______ _____ _____    ______ ____
ROOT
ATOM      1  C   UNL     1       2.748  -4.589   4.503  0.00  0.00    +0.000 C 
ATOM      2  O   UNL     1       2.303  -3.461   4.525  0.00  0.00    +0.000 OA
ATOM      3  N   UNL     1       2.225  -5.504   3.663  0.00  0.00    +0.000 N 
ATOM      4  H   UNL     1       2.537  -6.484   3.711  0.00  0.00    +0.000 HD
ENDROOT
BRANCH   3   5
ATOM      5  C   UNL     1       1.258  -5.122   2.726  0.00  0.00    +0.000 A 
ATOM      6  C   UNL     1       0.367  -6.061   2.228  0.00  0.00    +0.000 A 
ATOM      7  C   UNL     1      -0.598  -5.684   1.293  0.00  0.00    +0.000 A 
ATOM      8  C   UNL     1      -0.666  -4.361   0.860  0.00  0.00    +0.000 A 
ATOM      9  C   UNL     1       0.230  -3.419   1.361  0.00  0.00    +0.000 A 
ATOM     10  C   UNL     1       1.197  -3.805   2.292  0.00  0.00    +0.000 A 
BRANCH   7  11
ATOM     11  C   UNL     1      -1.547  -6.685   0.763  0.00  0.00    +0.000 C 
ATOM     12  O   UNL     1      -1.487  -7.838   1.142  0.00  0.00    +0.000 OA
BRANCH  11  13
ATOM     13  O   UNL     1      -2.478  -6.320  -0.139  0.00  0.00    +0.000 OA
ATOM     14  C   UNL     1      -3.376  -7.357  -0.616  0.00  0.00    +0.000 C 
ENDBRANCH  11  13
ENDBRANCH   7  11
BRANCH   9  15
ATOM     15  C   UNL     1       0.163  -2.016   0.904  0.00  0.00    +0.000 C 
ATOM     16  O   UNL     1       0.945  -1.196   1.342  0.00  0.00    +0.000 OA
BRANCH  15  17
ATOM     17  O   UNL     1      -0.767  -1.646   0.002  0.00  0.00    +0.000 OA
ATOM     18  C   UNL     1      -0.775  -0.251  -0.401  0.00  0.00    +0.000 C 
ENDBRANCH  15  17
ENDBRANCH   9  15
ENDBRANCH   3   5
BRANCH   1  20
ATOM     19  C   UNL     1       5.081  -5.425   4.577  0.00  0.00    +0.000 C 
ATOM     20  C   UNL     1       3.886  -4.967   5.416  0.00  0.00    +0.000 C 
BRANCH  20  21
ATOM     21  N   UNL     1       4.271  -3.807   6.223  0.00  0.00    +0.000 N 
ATOM     22  C   UNL     1       5.047  -2.886   5.693  0.00  0.00    +0.000 A 
ATOM     23  C   UNL     1       5.429  -1.772   6.422  0.00  0.00    +0.000 A 
ATOM     24  C   UNL     1       4.994  -1.634   7.731  0.00  0.00    +0.000 A 
ATOM     25  C   UNL     1       4.182  -2.622   8.265  0.00  0.00    +0.000 A 
ATOM     26  C   UNL     1       3.833  -3.713   7.472  0.00  0.00    +0.000 A 
BRANCH  26  27
ATOM     27  C   UNL     1       2.966  -4.779   8.028  0.00  0.00    +0.000 C 
ATOM     28  O   UNL     1       2.399  -5.552   7.282  0.00  0.00    +0.000 OA
ATOM     29  N   UNL     1       2.807  -4.890   9.362  0.00  0.00    +0.000 N 
ATOM     30  H   UNL     1       3.288  -4.235   9.995  0.00  0.00    +0.000 HD
ATOM     31  H   UNL     1       2.205  -5.630   9.748  0.00  0.00    +0.000 HD
ENDBRANCH  26  27
ENDBRANCH  20  21
ENDBRANCH   1  20
TORSDOF 8
ENDMDL
MODEL     1023
REMARK  Name = ZINC20025272
REMARK  8 active torsions:
REMARK  status: ('A' for Active; 'I' for Inactive)
REMARK    1  A    between atoms: C_1  and  C_2
REMARK    2  A    between atoms: C_2  and  O_3
REMARK    3  A    between atoms: O_3  and  C_4
REMARK    4  A    between atoms: C_7  and  N_10
REMARK    5  A    between atoms: C_14  and  N_15
REMARK    6  A    between atoms: N_15  and  C_16
REMARK    7  A    between atoms: C_16  and  C_17
REMARK    8  A    between atoms: C_17  and  N_18
REMARK                            x       y       z     vdW  Elec       q    Type
REMARK                         _______ _______ _______ _____ _____    ______ ____
ROOT
ATOM      1  N   UNL     1      -0.869   2.064   5.970  0.00  0.00    +0.000 N 
ATOM      2  C   UNL     1      -0.266   1.486   4.910  0.00  0.00    +0.000 C 
ATOM      3  O   UNL     1       0.714   0.781   5.057  0.00  0.00    +0.000 OA
ATOM      4  C   UNL     1      -0.823   1.739   3.570  0.00  0.00    +0.000 C 
ATOM      5  C   UNL     1      -0.255   1.186   2.437  0.00  0.00    +0.000 C 
ATOM      6  C   UNL     1      -2.015   2.602   3.489  0.00  0.00    +0.000 C 
ATOM      7  O   UNL     1      -2.534   2.852   2.418  0.00  0.00    +0.000 OA
ATOM      8  N   UNL     1      -2.515   3.106   4.636  0.00  0.00    +0.000 N 
ATOM      9  C   UNL     1      -1.953   2.838   5.823  0.00  0.00    +0.000 C 
ATOM     10  O   UNL     1      -2.453   3.324   6.819  0.00  0.00    +0.000 OA
ATOM     11  H   UNL     1      -3.349   3.710   4.599  0.00  0.00    +0.000 HD
ENDROOT
BRANCH   1  15
ATOM     12  C   UNL     1       0.664   1.409   9.794  0.00  0.00    +0.000 A 
ATOM     13  C   UNL     1      -0.584   0.909   9.453  0.00  0.00    +0.000 A 
ATOM     14  C   UNL     1      -1.092   1.126   8.187  0.00  0.00    +0.000 A 
ATOM     15  C   UNL     1      -0.353   1.843   7.256  0.00  0.00    +0.000 A 
ATOM     16  C   UNL     1       0.898   2.338   7.596  0.00  0.00    +0.000 A 
ATOM     17  C   UNL     1       1.402   2.127   8.864  0.00  0.00    +0.000 A 
BRANCH  12  18
ATOM     18  O   UNL     1       1.164   1.196  11.040  0.00  0.00    +0.000 OA
BRANCH  18  20
ATOM     19  C   UNL     1       2.846   1.400  12.763  0.00  0.00    +0.000 C 
ATOM     20  C   UNL     1       2.455   1.739  11.324  0.00  0.00    +0.000 C 
ENDBRANCH  18  20
ENDBRANCH  12  18
ENDBRANCH   1  15
BRANCH   5  21
ATOM     21  N   UNL     1      -0.708   1.536   1.216  0.00  0.00    +0.000 N 
ATOM     22  H   UNL     1      -1.528   2.153   1.129  0.00  0.00    +0.000 HD
BRANCH  21  23
ATOM     23  C   UNL     1      -0.034   1.038   0.014  0.00  0.00    +0.000 C 
BRANCH  23  24
ATOM     24  C   UNL     1      -0.742   1.580  -1.229  0.00  0.00    +0.000 C 
BRANCH  24  25
ATOM     25  N   UNL     1      -0.067   1.081  -2.434  0.00  0.00    +0.000 NA
ATOM     26  C   UNL     1       0.201  -0.361  -2.329  0.00  0.00    +0.000 C 
ATOM     27  C   UNL     1       0.974  -0.825  -3.565  0.00  0.00    +0.000 C 
ATOM     28  N   UNL     1       0.190  -0.524  -4.771  0.00  0.00    +0.000 N 
ATOM     29  C   UNL     1      -0.077   0.917  -4.877  0.00  0.00    +0.000 C 
ATOM     30  C   UNL     1      -0.851   1.381  -3.640  0.00  0.00    +0.000 C 
ATOM     31  H   UNL     1       0.713  -0.834  -5.603  0.00  0.00    +0.000 HD
ATOM     32  H   UNL     1      -0.705  -1.033  -4.732  0.00  0.00    +0.000 HD
ENDBRANCH  24  25
ENDBRANCH  23  24
ENDBRANCH  21  23
ENDBRANCH   5  21
TORSDOF 7
ENDMDL
MODEL     1024
REMARK  Name = ZINC30581710
REMARK  8 active torsions:
REMARK  status: ('A' for Active; 'I' for Inactive)
REMARK    1  A    between atoms: C_7  and  C_10
REMARK    2  A    between atoms: C_10  and  C_11
REMARK    3  A    between atoms: N_14  and  N_18
REMARK    4  A    between atoms: C_19  and  C_21
REMARK    5  A    between atoms: C_21  and  C_22
REMARK    6  A    between atoms: C_22  and  S_23
REMARK    7  A    between atoms: S_23  and  C_24
REMARK    8  A    between atoms: C_24  and  C_25
REMARK                            x       y       z     vdW  Elec       q    Type
REMARK                         _______ _______ _______ _____ _____    ______ ____
ROOT
ATOM      1  C   UNL     1      -0.753   1.593  -1.232  0.00  0.00    +0.000 C 
ATOM      2  C   UNL     1       0.003   1.222  -2.492  0.00  0.00    +0.000 C 
ATOM      3  O   UNL     1       1.122   1.568  -2.804  0.00  0.00    +0.000 OA
ATOM      4  N   UNL     1      -0.829   0.428  -3.195  0.00  0.00    +0.000 N 
ATOM      5  C   UNL     1      -1.992   0.246  -2.560  0.00  0.00    +0.000 C 
ATOM      6  O   UNL     1      -2.902  -0.431  -2.997  0.00  0.00    +0.000 OA
ATOM      7  N   UNL     1      -2.043   0.899  -1.385  0.00  0.00    +0.000 NA
ENDROOT
BRANCH   4   8
ATOM      8  N   UNL     1      -0.513  -0.138  -4.437  0.00  0.00    +0.000 N 
ATOM      9  C   UNL     1      -0.208  -1.448  -4.523  0.00  0.00    +0.000 C 
ATOM     10  O   UNL     1      -0.205  -2.137  -3.525  0.00  0.00    +0.000 OA
ATOM     11  H   UNL     1      -0.515   0.447  -5.285  0.00  0.00    +0.000 HD
BRANCH   9  12
ATOM     12  C   UNL     1       0.131  -2.057  -5.860  0.00  0.00    +0.000 C 
BRANCH  12  13
ATOM     13  C   UNL     1       0.436  -3.545  -5.680  0.00  0.00    +0.000 C 
BRANCH  13  14
ATOM     14  S   UNL     1       0.844  -4.277  -7.288  0.00  0.00    +0.000 S 
BRANCH  14  15
ATOM     15  C   UNL     1       1.175  -6.019  -6.906  0.00  0.00    +0.000 C 
BRANCH  15  16
ATOM     16  C   UNL     1       1.532  -6.753  -8.173  0.00  0.00    +0.000 C 
ATOM     17  O   UNL     1       1.560  -6.159  -9.230  0.00  0.00    +0.000 OA
ATOM     18  N   UNL     1       1.819  -8.069  -8.132  0.00  0.00    +0.000 N 
ATOM     19  H   UNL     1       1.796  -8.573  -7.234  0.00  0.00    +0.000 HD
ATOM     20  H   UNL     1       2.063  -8.570  -8.998  0.00  0.00    +0.000 HD
ENDBRANCH  15  16
ENDBRANCH  14  15
ENDBRANCH  13  14
ENDBRANCH  12  13
ENDBRANCH   9  12
ENDBRANCH   4   8
BRANCH   1  21
ATOM     21  C   UNL     1      -0.013   1.086   0.008  0.00  0.00    +0.000 C 
BRANCH  21  28
ATOM     22  C   UNL     1      -3.644  -0.549   2.481  0.00  0.00    +0.000 A 
ATOM     23  C   UNL     1      -3.954   0.246   3.576  0.00  0.00    +0.000 A 
ATOM     24  C   UNL     1      -3.227   1.384   3.847  0.00  0.00    +0.000 A 
ATOM     25  C   UNL     1      -2.170   1.742   3.016  0.00  0.00    +0.000 A 
ATOM     26  C   UNL     1      -1.863   0.937   1.904  0.00  0.00    +0.000 A 
ATOM     27  C   UNL     1      -2.610  -0.216   1.652  0.00  0.00    +0.000 A 
ATOM     28  C   UNL     1      -0.718   1.572   1.248  0.00  0.00    +0.000 A 
ATOM     29  C   UNL     1      -0.420   2.672   1.957  0.00  0.00    +0.000 A 
ATOM     30  N   UNL     1      -1.277   2.790   3.017  0.00  0.00    +0.000 N 
ATOM     31  H   UNL     1      -1.256   3.550   3.713  0.00  0.00    +0.000 HD
ENDBRANCH  21  28
ENDBRANCH   1  21
TORSDOF 8
ENDMDL
MODEL     1025
REMARK  Name = ZINC20918306
REMARK  11 active torsions:
REMARK  status: ('A' for Active; 'I' for Inactive)
REMARK    1  A    between atoms: C_1  and  C_2
REMARK    2  A    between atoms: C_5  and  C_8
REMARK    3  A    between atoms: N_9  and  N_10
REMARK    4  A    between atoms: C_14  and  S_17
REMARK    5  A    between atoms: N_15  and  N_16
REMARK    6  A    between atoms: S_17  and  C_18
REMARK    7  A    between atoms: C_18  and  C_19
REMARK    8  A    between atoms: N_21  and  N_22
REMARK    9  A    between atoms: C_23  and  C_25
REMARK   10  A    between atoms: C_25  and  C_26
REMARK   11  A    between atoms: C_25  and  C_27
REMARK                            x       y       z     vdW  Elec       q    Type
REMARK                         _______ _______ _______ _____ _____    ______ ____
ROOT
ATOM      1  N   UNL     1      -0.017   1.383   0.010  0.00  0.00    +0.000 N 
ATOM      2  C   UNL     1       0.002  -0.004   0.002  0.00  0.00    +0.000 A 
ATOM      3  N   UNL     1      -1.048  -0.789   0.014  0.00  0.00    +0.000 NA
ATOM      4  N   UNL     1      -0.597  -2.115  -0.003  0.00  0.00    +0.000 NA
ATOM      5  C   UNL     1       0.715  -2.097  -0.015  0.00  0.00    +0.000 A 
ATOM      6  N   UNL     1       1.119  -0.793  -0.013  0.00  0.00    +0.000 N 
ATOM      7  H   UNL     1       0.868   1.910   0.008  0.00  0.00    +0.000 HD
ENDROOT
BRANCH   6   8
ATOM      8  N   UNL     1       2.412  -0.353  -0.023  0.00  0.00    +0.000 N 
ATOM      9  H   UNL     1       2.537   0.670  -0.019  0.00  0.00    +0.000 HD
ATOM     10  H   UNL     1       3.222  -0.989  -0.034  0.00  0.00    +0.000 HD
ENDBRANCH   6   8
BRANCH   1  12
ATOM     11  C   UNL     1      -1.257   3.366   0.026  0.00  0.00    +0.000 C 
ATOM     12  N   UNL     1      -1.239   2.067   0.019  0.00  0.00    +0.000 NA
BRANCH  11  17
ATOM     13  C   UNL     1      -6.276   6.173   0.066  0.00  0.00    +0.000 C 
ATOM     14  C   UNL     1      -4.961   5.438   0.055  0.00  0.00    +0.000 A 
ATOM     15  C   UNL     1      -3.774   6.149   0.053  0.00  0.00    +0.000 A 
ATOM     16  C   UNL     1      -2.567   5.482   0.044  0.00  0.00    +0.000 A 
ATOM     17  C   UNL     1      -2.544   4.085   0.036  0.00  0.00    +0.000 A 
ATOM     18  C   UNL     1      -3.746   3.374   0.032  0.00  0.00    +0.000 A 
ATOM     19  C   UNL     1      -4.946   4.054   0.047  0.00  0.00    +0.000 A 
ENDBRANCH  11  17
ENDBRANCH   1  12
BRANCH   5  20
ATOM     20  S   UNL     1       1.770  -3.508  -0.033  0.00  0.00    +0.000 S 
BRANCH  20  21
ATOM     21  C   UNL     1       0.623  -4.914  -0.029  0.00  0.00    +0.000 C 
BRANCH  21  22
ATOM     22  C   UNL     1       1.406  -6.201  -0.042  0.00  0.00    +0.000 C 
ATOM     23  O   UNL     1       2.619  -6.173  -0.054  0.00  0.00    +0.000 OA
ATOM     24  N   UNL     1       0.759  -7.384  -0.042  0.00  0.00    +0.000 N 
ATOM     25  H   UNL     1      -0.270  -7.407  -0.033  0.00  0.00    +0.000 HD
BRANCH  24  26
ATOM     26  N   UNL     1       1.487  -8.581  -0.055  0.00  0.00    +0.000 N 
ATOM     27  C   UNL     1       0.841  -9.763  -0.055  0.00  0.00    +0.000 C 
ATOM     28  O   UNL     1      -0.372  -9.791  -0.043  0.00  0.00    +0.000 OA
ATOM     29  H   UNL     1       2.517  -8.557  -0.065  0.00  0.00    +0.000 HD
BRANCH  27  30
ATOM     30  C   UNL     1       1.624 -11.050  -0.068  0.00  0.00    +0.000 C 
ATOM     31  C   UNL     1       0.656 -12.236  -0.065  0.00  0.00    +0.000 C 
ATOM     32  C   UNL     1       2.493 -11.105  -1.326  0.00  0.00    +0.000 C 
ENDBRANCH  27  30
ENDBRANCH  24  26
ENDBRANCH  21  22
ENDBRANCH  20  21
ENDBRANCH   5  20
TORSDOF 8
ENDMDL
MODEL     1026
REMARK  Name = ZINC08642818
REMARK  11 active torsions:
REMARK  status: ('A' for Active; 'I' for Inactive)
REMARK    1  A    between atoms: C_1  and  N_2
REMARK    2  A    between atoms: N_7  and  C_10
REMARK    3  A    between atoms: N_11  and  C_18
REMARK    4  A    between atoms: N_14  and  C_15
REMARK    5  A    between atoms: C_15  and  C_16
REMARK    6  A    between atoms: C_16  and  O_17
REMARK    7  A    between atoms: C_18  and  C_19
REMARK    8  A    between atoms: C_19  and  C_20
REMARK    9  A    between atoms: C_19  and  O_28
REMARK   10  A    between atoms: C_20  and  O_21
REMARK   11  A    between atoms: O_21  and  C_22
REMARK                            x       y       z     vdW  Elec       q    Type
REMARK                         _______ _______ _______ _____ _____    ______ ____
ROOT
ATOM      1  C   UNL     1       0.028   5.424   0.028  0.00  0.00    +0.000 C 
ATOM      2  N   UNL     1      -0.011   3.959   0.022  0.00  0.00    +0.000 N 
ATOM      3  C   UNL     1      -1.229   3.299   0.030  0.00  0.00    +0.000 A 
ATOM      4  C   UNL     1      -1.237   1.908   0.018  0.00  0.00    +0.000 A 
ATOM      5  C   UNL     1      -0.015   1.214   0.009  0.00  0.00    +0.000 A 
ATOM      6  O   UNL     1       0.002  -0.004   0.002  0.00  0.00    +0.000 OA
ATOM      7  N   UNL     1       1.140   1.912   0.001  0.00  0.00    +0.000 N 
ATOM      8  C   UNL     1       1.137   3.256   0.008  0.00  0.00    +0.000 A 
ATOM      9  O   UNL     1       2.198   3.852   0.001  0.00  0.00    +0.000 OA
ATOM     10  C   UNL     1       2.417   1.193  -0.014  0.00  0.00    +0.000 C 
ATOM     11  N   UNL     1      -2.572   1.526   0.022  0.00  0.00    +0.000 N 
ATOM     12  C   UNL     1      -3.307   2.669   0.031  0.00  0.00    +0.000 A 
ATOM     13  N   UNL     1      -2.498   3.709   0.042  0.00  0.00    +0.000 NA
ATOM     14  N   UNL     1      -4.682   2.731   0.037  0.00  0.00    +0.000 N 
ATOM     15  H   UNL     1      -5.236   1.862   0.036  0.00  0.00    +0.000 HD
ENDROOT
BRANCH  11  16
ATOM     16  C   UNL     1      -3.088   0.155   0.018  0.00  0.00    +0.000 C 
BRANCH  16  17
ATOM     17  C   UNL     1      -3.262  -0.330   1.459  0.00  0.00    +0.000 C 
BRANCH  17  18
ATOM     18  O   UNL     1      -4.269   0.451   2.106  0.00  0.00    +0.000 OA
ATOM     19  H   UNL     1      -5.126   0.354   1.620  0.00  0.00    +0.000 HD
ENDBRANCH  17  18
BRANCH  17  20
ATOM     20  C   UNL     1      -3.681  -1.801   1.456  0.00  0.00    +0.000 C 
BRANCH  20  21
ATOM     21  O   UNL     1      -3.730  -2.285   2.799  0.00  0.00    +0.000 OA
BRANCH  21  22
ATOM     22  C   UNL     1      -4.089  -3.584   2.974  0.00  0.00    +0.000 A 
ATOM     23  C   UNL     1      -4.393  -4.375   1.875  0.00  0.00    +0.000 A 
ATOM     24  C   UNL     1      -4.752  -5.697   2.055  0.00  0.00    +0.000 A 
ATOM     25  C   UNL     1      -4.819  -6.229   3.329  0.00  0.00    +0.000 A 
ATOM     26  C   UNL     1      -4.522  -5.441   4.426  0.00  0.00    +0.000 A 
ATOM     27  C   UNL     1      -4.157  -4.121   4.251  0.00  0.00    +0.000 A 
ENDBRANCH  21  22
ENDBRANCH  20  21
ENDBRANCH  17  20
ENDBRANCH  16  17
ENDBRANCH  11  16
BRANCH  14  28
ATOM     28  C   UNL     1      -5.357   4.031   0.047  0.00  0.00    +0.000 C 
BRANCH  28  29
ATOM     29  C   UNL     1      -6.872   3.819   0.053  0.00  0.00    +0.000 C 
BRANCH  29  30
ATOM     30  O   UNL     1      -7.259   3.183   1.272  0.00  0.00    +0.000 OA
ATOM     31  H   UNL     1      -7.004   3.754   2.039  0.00  0.00    +0.000 HD
ENDBRANCH  29  30
ENDBRANCH  28  29
ENDBRANCH  14  28
TORSDOF 9
ENDMDL
MODEL     1027
REMARK  Name = ZINC24869044
REMARK  10 active torsions:
REMARK  status: ('A' for Active; 'I' for Inactive)
REMARK    1  A    between atoms: C_4  and  O_8
REMARK    2  A    between atoms: C_5  and  O_7
REMARK    3  A    between atoms: O_8  and  C_9
REMARK    4  A    between atoms: C_9  and  C_10
REMARK    5  A    between atoms: C_10  and  C_11
REMARK    6  A    between atoms: N_16  and  C_19
REMARK    7  A    between atoms: C_19  and  C_20
REMARK    8  A    between atoms: C_20  and  C_21
REMARK    9  A    between atoms: C_20  and  O_26
REMARK   10  A    between atoms: C_21  and  S_22
REMARK                            x       y       z     vdW  Elec       q    Type
REMARK                         _______ _______ _______ _____ _____    ______ ____
ROOT
ATOM      1  C   UNL     1      -2.760  -2.857   0.091  0.00  0.00    +0.000 C 
ATOM      2  O   UNL     1      -3.829  -2.285   0.127  0.00  0.00    +0.000 OA
ATOM      3  N   UNL     1      -2.717  -4.204   0.062  0.00  0.00    +0.000 N 
ATOM      4  C   UNL     1      -1.432  -4.917   0.012  0.00  0.00    +0.000 C 
ATOM      5  C   UNL     1      -1.422  -5.973   1.129  0.00  0.00    +0.000 C 
ATOM      6  N   UNL     1      -2.610  -6.826   1.000  0.00  0.00    +0.000 NA
ATOM      7  C   UNL     1      -3.845  -6.051   1.184  0.00  0.00    +0.000 C 
ATOM      8  C   UNL     1      -3.954  -5.000   0.075  0.00  0.00    +0.000 C 
ENDROOT
BRANCH   1   9
ATOM      9  C   UNL     1      -1.480  -2.062   0.077  0.00  0.00    +0.000 C 
BRANCH   9  10
ATOM     10  C   UNL     1      -1.808  -0.568   0.115  0.00  0.00    +0.000 C 
BRANCH  10  11
ATOM     11  O   UNL     1      -0.594   0.186   0.102  0.00  0.00    +0.000 OA
BRANCH  11  15
ATOM     12  C   UNL     1      -0.943   4.300   0.193  0.00  0.00    +0.000 A 
ATOM     13  C   UNL     1      -2.077   3.509   0.203  0.00  0.00    +0.000 A 
ATOM     14  C   UNL     1      -1.962   2.131   0.167  0.00  0.00    +0.000 A 
ATOM     15  C   UNL     1      -0.709   1.541   0.132  0.00  0.00    +0.000 A 
ATOM     16  C   UNL     1       0.432   2.338   0.121  0.00  0.00    +0.000 A 
ATOM     17  C   UNL     1       0.310   3.718   0.152  0.00  0.00    +0.000 A 
BRANCH  16  18
ATOM     18  O   UNL     1       1.664   1.764   0.080  0.00  0.00    +0.000 OA
ATOM     19  H   UNL     1       1.651   1.191  -0.728  0.00  0.00    +0.000 HD
ENDBRANCH  16  18
ENDBRANCH  11  15
ENDBRANCH  10  11
ENDBRANCH   9  10
ENDBRANCH   1   9
BRANCH   6  20
ATOM     20  C   UNL     1      -2.552  -7.955   1.939  0.00  0.00    +0.000 C 
BRANCH  20  21
ATOM     21  C   UNL     1      -2.198  -7.439   3.335  0.00  0.00    +0.000 C 
BRANCH  21  22
ATOM     22  O   UNL     1      -3.262  -6.623   3.826  0.00  0.00    +0.000 OA
ATOM     23  H   UNL     1      -4.094  -7.157   3.873  0.00  0.00    +0.000 HD
ENDBRANCH  21  22
BRANCH  21  24
ATOM     24  C   UNL     1      -1.988  -8.626   4.278  0.00  0.00    +0.000 C 
BRANCH  24  25
ATOM     25  S   UNL     1      -1.568  -8.015   5.934  0.00  0.00    +0.000 S 
ATOM     26  O   UNL     1      -0.288  -7.398   5.917  0.00  0.00    +0.000 OA
ATOM     27  O   UNL     1      -2.685  -7.351   6.509  0.00  0.00    +0.000 OA
ATOM     28  O   UNL     1      -1.384  -9.268   6.778  0.00  0.00    +0.000 OA
ENDBRANCH  24  25
ENDBRANCH  21  24
ENDBRANCH  20  21
ENDBRANCH   6  20
TORSDOF 10
ENDMDL
MODEL     1028
REMARK  Name = ZINC29479691
REMARK  10 active torsions:
REMARK  status: ('A' for Active; 'I' for Inactive)
REMARK    1  A    between atoms: C_1  and  C_2
REMARK    2  A    between atoms: C_2  and  C_3
REMARK    3  A    between atoms: C_3  and  C_4
REMARK    4  A    between atoms: C_3  and  N_5
REMARK    5  A    between atoms: N_5  and  C_6
REMARK    6  A    between atoms: C_13  and  C_15
REMARK    7  A    between atoms: C_15  and  S_16
REMARK    8  A    between atoms: S_16  and  C_17
REMARK    9  A    between atoms: N_18  and  C_19
REMARK   10  A    between atoms: C_19  and  C_20
REMARK                            x       y       z     vdW  Elec       q    Type
REMARK                         _______ _______ _______ _____ _____    ______ ____
ROOT
ATOM      1  N   UNL     1      -2.484   5.132   4.481  0.00  0.00    +0.000 N 
ATOM      2  C   UNL     1      -2.552   3.789   4.400  0.00  0.00    +0.000 C 
ATOM      3  O   UNL     1      -3.130   3.157   5.259  0.00  0.00    +0.000 OA
ENDROOT
BRANCH   1   4
ATOM      4  C   UNL     1      -3.108   5.830   5.607  0.00  0.00    +0.000 C 
ATOM      5  C   UNL     1      -4.618   5.541   5.614  0.00  0.00    +0.000 C 
ATOM      6  C   UNL     1      -5.198   6.023   6.974  0.00  0.00    +0.000 C 
ATOM      7  S   UNL     1      -3.867   5.473   8.122  0.00  0.00    +0.000 S 
ATOM      8  O   UNL     1      -4.183   4.175   8.608  0.00  0.00    +0.000 OA
ATOM      9  O   UNL     1      -3.590   6.517   9.045  0.00  0.00    +0.000 OA
ATOM     10  C   UNL     1      -2.472   5.342   6.931  0.00  0.00    +0.000 C 
ENDBRANCH   1   4
BRANCH   1  11
ATOM     11  C   UNL     1      -1.786   5.895   3.443  0.00  0.00    +0.000 C 
ATOM     12  C   UNL     1      -2.764   6.866   2.779  0.00  0.00    +0.000 C 
BRANCH  11  14
ATOM     13  C   UNL     1       0.405   5.705   4.628  0.00  0.00    +0.000 C 
ATOM     14  C   UNL     1      -0.635   6.681   4.074  0.00  0.00    +0.000 C 
ENDBRANCH  11  14
ENDBRANCH   1  11
BRANCH   2  15
ATOM     15  C   UNL     1      -1.909   3.071   3.241  0.00  0.00    +0.000 C 
BRANCH  15  16
ATOM     16  S   UNL     1      -2.171   1.288   3.416  0.00  0.00    +0.000 S 
BRANCH  16  17
ATOM     17  C   UNL     1      -1.343   0.714   1.970  0.00  0.00    +0.000 C 
ATOM     18  N   UNL     1      -0.776   1.566   1.162  0.00  0.00    +0.000 N 
ATOM     19  N   UNL     1      -1.293  -0.633   1.696  0.00  0.00    +0.000 N 
ATOM     20  H   UNL     1      -0.729   2.563   1.415  0.00  0.00    +0.000 HD
ATOM     21  H   UNL     1      -1.740  -1.306   2.334  0.00  0.00    +0.000 HD
ATOM     22  H   UNL     1      -0.808  -0.969   0.851  0.00  0.00    +0.000 HD
BRANCH  18  23
ATOM     23  C   UNL     1      -0.207   1.105  -0.107  0.00  0.00    +0.000 C 
BRANCH  23  24
ATOM     24  C   UNL     1      -0.961   1.754  -1.270  0.00  0.00    +0.000 C 
ATOM     25  C   UNL     1      -0.445   1.187  -2.610  0.00  0.00    +0.000 C 
ATOM     26  C   UNL     1      -0.434   2.446  -3.518  0.00  0.00    +0.000 C 
ATOM     27  C   UNL     1      -0.057   3.545  -2.493  0.00  0.00    +0.000 C 
ATOM     28  O   UNL     1      -0.720   3.166  -1.276  0.00  0.00    +0.000 OA
ENDBRANCH  23  24
ENDBRANCH  18  23
ENDBRANCH  16  17
ENDBRANCH  15  16
ENDBRANCH   2  15
TORSDOF 8
ENDMDL
MODEL     1029
REMARK  Name = ZINC29005505
REMARK  9 active torsions:
REMARK  status: ('A' for Active; 'I' for Inactive)
REMARK    1  A    between atoms: C_1  and  O_2
REMARK    2  A    between atoms: O_2  and  C_3
REMARK    3  A    between atoms: C_3  and  O_26
REMARK    4  A    between atoms: C_4  and  C_5
REMARK    5  A    between atoms: C_5  and  N_15
REMARK    6  A    between atoms: N_15  and  C_16
REMARK    7  A    between atoms: C_16  and  C_17
REMARK    8  A    between atoms: C_17  and  C_18
REMARK    9  A    between atoms: C_18  and  N_19
REMARK                            x       y       z     vdW  Elec       q    Type
REMARK                         _______ _______ _______ _____ _____    ______ ____
ROOT
ATOM      1  C   UNL     1       0.154   3.615   0.074  0.00  0.00    +0.000 C 
ATOM      2  C   UNL     1       0.246   5.024   0.059  0.00  0.00    +0.000 C 
ATOM      3  C   UNL     1      -0.910   5.830   0.225  0.00  0.00    +0.000 C 
ATOM      4  O   UNL     1      -2.003   5.318   0.384  0.00  0.00    +0.000 OA
ATOM      5  N   UNL     1      -0.779   7.172   0.209  0.00  0.00    +0.000 N 
ATOM      6  C   UNL     1       0.423   7.745   0.029  0.00  0.00    +0.000 C 
ATOM      7  S   UNL     1       0.534   9.454   0.011  0.00  0.00    +0.000 S 
ATOM      8  N   UNL     1       1.540   7.017  -0.137  0.00  0.00    +0.000 N 
ATOM      9  C   UNL     1       1.495   5.670  -0.129  0.00  0.00    +0.000 C 
ATOM     10  O   UNL     1       2.512   5.017  -0.280  0.00  0.00    +0.000 OA
ATOM     11  H   UNL     1      -1.611   7.765   0.338  0.00  0.00    +0.000 HD
ATOM     12  H   UNL     1       2.442   7.495  -0.273  0.00  0.00    +0.000 HD
ENDROOT
BRANCH   1  14
ATOM     13  C   UNL     1       2.146   2.832   1.146  0.00  0.00    +0.000 C 
ATOM     14  C   UNL     1       1.319   2.838   0.061  0.00  0.00    +0.000 C 
ATOM     15  F   UNL     1       1.623   2.093  -1.024  0.00  0.00    +0.000 F 
BRANCH  13  16
ATOM     16  O   UNL     1       1.890   3.640   2.194  0.00  0.00    +0.000 OA
ATOM     17  H   UNL     1       2.711   4.181   2.308  0.00  0.00    +0.000 HD
ENDBRANCH  13  16
BRANCH  13  19
ATOM     18  C   UNL     1       4.045   2.063   2.336  0.00  0.00    +0.000 C 
ATOM     19  O   UNL     1       3.221   2.017   1.169  0.00  0.00    +0.000 OA
ENDBRANCH  13  19
ENDBRANCH   1  14
BRANCH   1  20
ATOM     20  N   UNL     1      -1.077   3.007   0.101  0.00  0.00    +0.000 N 
ATOM     21  H   UNL     1      -1.931   3.577   0.185  0.00  0.00    +0.000 HD
BRANCH  20  22
ATOM     22  C   UNL     1      -1.176   1.548   0.009  0.00  0.00    +0.000 C 
BRANCH  22  23
ATOM     23  C   UNL     1      -2.649   1.140  -0.061  0.00  0.00    +0.000 C 
BRANCH  23  24
ATOM     24  C   UNL     1      -2.753  -0.383  -0.157  0.00  0.00    +0.000 C 
BRANCH  24  25
ATOM     25  N   UNL     1      -4.167  -0.775  -0.225  0.00  0.00    +0.000 N 
ATOM     26  C   UNL     1      -4.861  -0.462   1.034  0.00  0.00    +0.000 C 
ATOM     27  C   UNL     1      -6.340  -0.831   0.899  0.00  0.00    +0.000 C 
ATOM     28  O   UNL     1      -6.453  -2.212   0.547  0.00  0.00    +0.000 OA
ATOM     29  C   UNL     1      -5.789  -2.552  -0.673  0.00  0.00    +0.000 C 
ATOM     30  C   UNL     1      -4.303  -2.201  -0.554  0.00  0.00    +0.000 C 
ATOM     31  H   UNL     1      -4.609  -0.229  -0.977  0.00  0.00    +0.000 HD
ENDBRANCH  24  25
ENDBRANCH  23  24
ENDBRANCH  22  23
ENDBRANCH  20  22
ENDBRANCH   1  20
TORSDOF 8
ENDMDL
MODEL     1030
REMARK  Name = ZINC01843099
REMARK  11 active torsions:
REMARK  status: ('A' for Active; 'I' for Inactive)
REMARK    1  A    between atoms: C_1  and  N_2
REMARK    2  A    between atoms: N_2  and  C_3
REMARK    3  A    between atoms: C_3  and  C_4
REMARK    4  A    between atoms: C_4  and  C_5
REMARK    5  A    between atoms: C_5  and  N_6
REMARK    6  A    between atoms: C_7  and  C_9
REMARK    7  A    between atoms: C_18  and  O_27
REMARK    8  A    between atoms: C_19  and  O_25
REMARK    9  A    between atoms: C_22  and  N_24
REMARK   10  A    between atoms: O_25  and  C_26
REMARK   11  A    between atoms: O_27  and  C_28
REMARK                            x       y       z     vdW  Elec       q    Type
REMARK                         _______ _______ _______ _____ _____    ______ ____
ROOT
ATOM      1  C   UNL     1       3.441   3.599  -0.011  0.00  0.00    +0.000 C 
ATOM      2  N   UNL     1       3.474   2.134  -0.020  0.00  0.00    +0.000 N 
ATOM      3  C   UNL     1       2.292   1.415  -0.012  0.00  0.00    +0.000 A 
ATOM      4  N   UNL     1       1.150   2.075   0.002  0.00  0.00    +0.000 NA
ATOM      5  C   UNL     1      -0.017   1.412   0.010  0.00  0.00    +0.000 A 
ATOM      6  C   UNL     1      -1.246   2.084   0.031  0.00  0.00    +0.000 A 
ATOM      7  C   UNL     1      -2.416   1.358   0.034  0.00  0.00    +0.000 A 
ATOM      8  C   UNL     1      -2.390  -0.043   0.025  0.00  0.00    +0.000 A 
ATOM      9  C   UNL     1      -1.203  -0.718   0.010  0.00  0.00    +0.000 A 
ATOM     10  C   UNL     1       0.002  -0.004   0.002  0.00  0.00    +0.000 A 
ATOM     11  C   UNL     1       1.258  -0.658  -0.013  0.00  0.00    +0.000 A 
ATOM     12  N   UNL     1       2.355   0.086  -0.020  0.00  0.00    +0.000 NA
ENDROOT
BRANCH  11  13
ATOM     13  N   UNL     1       1.338  -2.035  -0.022  0.00  0.00    +0.000 N 
ATOM     14  H   UNL     1       0.471  -2.591  -0.017  0.00  0.00    +0.000 HD
ATOM     15  H   UNL     1       2.255  -2.504  -0.033  0.00  0.00    +0.000 HD
ENDBRANCH  11  13
BRANCH   8  16
ATOM     16  O   UNL     1      -3.559  -0.738   0.033  0.00  0.00    +0.000 OA
ATOM     17  C   UNL     1      -3.466  -2.164   0.025  0.00  0.00    +0.000 C 
ENDBRANCH   8  16
BRANCH   7  18
ATOM     18  O   UNL     1      -3.610   2.008   0.050  0.00  0.00    +0.000 OA
ATOM     19  C   UNL     1      -3.571   3.436   0.058  0.00  0.00    +0.000 C 
ENDBRANCH   7  18
BRANCH   2  20
ATOM     20  C   UNL     1       4.760   1.431  -0.036  0.00  0.00    +0.000 C 
BRANCH  20  21
ATOM     21  C   UNL     1       5.194   1.194  -1.484  0.00  0.00    +0.000 C 
BRANCH  21  22
ATOM     22  C   UNL     1       6.536   0.460  -1.500  0.00  0.00    +0.000 C 
BRANCH  22  23
ATOM     23  N   UNL     1       6.951   0.234  -2.887  0.00  0.00    +0.000 N 
ATOM     24  C   UNL     1       8.111  -0.401  -3.148  0.00  0.00    +0.000 C 
ATOM     25  O   UNL     1       8.812  -0.784  -2.235  0.00  0.00    +0.000 OA
ATOM     26  H   UNL     1       6.356   0.559  -3.662  0.00  0.00    +0.000 HD
BRANCH  24  27
ATOM     27  C   UNL     1       8.539  -0.634  -4.574  0.00  0.00    +0.000 C 
ATOM     28  C   UNL     1       8.809   0.715  -5.267  0.00  0.00    +0.000 C 
ATOM     29  C   UNL     1      10.285   0.619  -5.724  0.00  0.00    +0.000 C 
ATOM     30  C   UNL     1      10.520  -0.913  -5.739  0.00  0.00    +0.000 C 
ATOM     31  O   UNL     1       9.766  -1.381  -4.600  0.00  0.00    +0.000 OA
ENDBRANCH  24  27
ENDBRANCH  22  23
ENDBRANCH  21  22
ENDBRANCH  20  21
ENDBRANCH   2  20
TORSDOF 8
ENDMDL
MODEL     1031
REMARK  Name = ZINC31217234
REMARK  9 active torsions:
REMARK  status: ('A' for Active; 'I' for Inactive)
REMARK    1  A    between atoms: C_1  and  S_2
REMARK    2  A    between atoms: S_2  and  N_5
REMARK    3  A    between atoms: N_5  and  C_6
REMARK    4  A    between atoms: C_6  and  C_7
REMARK    5  A    between atoms: C_7  and  C_8
REMARK    6  A    between atoms: C_8  and  N_9
REMARK    7  A    between atoms: C_10  and  C_12
REMARK    8  A    between atoms: C_15  and  S_18
REMARK    9  A    between atoms: S_18  and  N_21
REMARK                            x       y       z     vdW  Elec       q    Type
REMARK                         _______ _______ _______ _____ _____    ______ ____
ROOT
ATOM      1  C   UNL     1      -2.356   2.660   3.686  0.00  0.00    +0.000 A 
ATOM      2  C   UNL     1      -2.561   1.402   3.117  0.00  0.00    +0.000 A 
ATOM      3  C   UNL     1      -1.846   1.030   1.998  0.00  0.00    +0.000 A 
ATOM      4  C   UNL     1      -0.927   1.900   1.439  0.00  0.00    +0.000 A 
ATOM      5  C   UNL     1      -0.715   3.146   2.002  0.00  0.00    +0.000 A 
ATOM      6  C   UNL     1      -1.427   3.533   3.118  0.00  0.00    +0.000 A 
ENDROOT
BRANCH   1   8
ATOM      7  N   UNL     1      -2.919   4.281   5.433  0.00  0.00    +0.000 N 
ATOM      8  C   UNL     1      -3.119   3.066   4.886  0.00  0.00    +0.000 C 
ATOM      9  O   UNL     1      -3.928   2.303   5.378  0.00  0.00    +0.000 OA
ATOM     10  H   UNL     1      -2.233   4.927   5.016  0.00  0.00    +0.000 HD
BRANCH   7  11
ATOM     11  C   UNL     1      -3.675   4.683   6.621  0.00  0.00    +0.000 C 
BRANCH  11  12
ATOM     12  C   UNL     1      -3.261   6.096   7.036  0.00  0.00    +0.000 C 
BRANCH  12  13
ATOM     13  C   UNL     1      -4.051   6.516   8.277  0.00  0.00    +0.000 C 
BRANCH  13  14
ATOM     14  N   UNL     1      -3.654   7.869   8.674  0.00  0.00    +0.000 NA
ATOM     15  H   UNL     1      -2.794   8.287   8.290  0.00  0.00    +0.000 HD
BRANCH  14  17
ATOM     16  C   UNL     1      -4.488   7.799  11.296  0.00  0.00    +0.000 C 
ATOM     17  S   UNL     1      -4.587   8.727   9.740  0.00  0.00    +0.000 S 
ATOM     18  O   UNL     1      -3.927   9.978   9.874  0.00  0.00    +0.000 OA
ATOM     19  O   UNL     1      -5.903   8.655   9.210  0.00  0.00    +0.000 OA
ENDBRANCH  14  17
ENDBRANCH  13  14
ENDBRANCH  12  13
ENDBRANCH  11  12
ENDBRANCH   7  11
ENDBRANCH   1   8
BRANCH   4  20
ATOM     20  S   UNL     1      -0.017   1.417   0.010  0.00  0.00    +0.000 S 
ATOM     21  O   UNL     1       0.002  -0.004   0.002  0.00  0.00    +0.000 OA
ATOM     22  O   UNL     1       1.172   2.195   0.003  0.00  0.00    +0.000 OA
BRANCH  20  23
ATOM     23  N   UNL     1      -0.897   1.885  -1.312  0.00  0.00    +0.000 NA
ATOM     24  C   UNL     1      -1.909   1.071  -2.000  0.00  0.00    +0.000 C 
ATOM     25  C   UNL     1      -2.444   1.906  -3.183  0.00  0.00    +0.000 C 
ATOM     26  C   UNL     1      -1.295   2.918  -3.438  0.00  0.00    +0.000 C 
ATOM     27  C   UNL     1      -0.792   3.186  -1.998  0.00  0.00    +0.000 C 
ENDBRANCH  20  23
ENDBRANCH   4  20
TORSDOF 8
ENDMDL
MODEL     1032
REMARK  Name = ZINC27080663
REMARK  8 active torsions:
REMARK  status: ('A' for Active; 'I' for Inactive)
REMARK    1  A    between atoms: C_6  and  N_11
REMARK    2  A    between atoms: C_7  and  C_8
REMARK    3  A    between atoms: C_12  and  C_14
REMARK    4  A    between atoms: C_14  and  O_15
REMARK    5  A    between atoms: O_15  and  C_16
REMARK    6  A    between atoms: C_16  and  C_18
REMARK    7  A    between atoms: C_18  and  C_19
REMARK    8  A    between atoms: C_19  and  C_20
REMARK                            x       y       z     vdW  Elec       q    Type
REMARK                         _______ _______ _______ _____ _____    ______ ____
ROOT
ATOM      1  N   UNL     1      -0.011   0.966   0.007  0.00  0.00    +0.000 N 
ATOM      2  C   UNL     1       1.147   1.655   0.000  0.00  0.00    +0.000 C 
ATOM      3  O   UNL     1       1.130   2.868   0.007  0.00  0.00    +0.000 OA
ATOM      4  H   UNL     1       0.003  -0.064   0.006  0.00  0.00    +0.000 HD
ENDROOT
BRANCH   1  10
ATOM      5  C   UNL     1      -5.644   3.350   0.488  0.00  0.00    +0.000 C 
ATOM      6  C   UNL     1      -5.147   1.963   0.035  0.00  0.00    +0.000 C 
ATOM      7  C   UNL     1      -3.621   2.057   0.030  0.00  0.00    +0.000 A 
ATOM      8  C   UNL     1      -3.274   3.357   0.036  0.00  0.00    +0.000 A 
ATOM      9  S   UNL     1      -1.498   3.351   0.027  0.00  0.00    +0.000 S 
ATOM     10  C   UNL     1      -1.221   1.643   0.017  0.00  0.00    +0.000 A 
ATOM     11  C   UNL     1      -2.502   1.116   0.014  0.00  0.00    +0.000 A 
ATOM     12  C   UNL     1      -4.476   4.262   0.049  0.00  0.00    +0.000 C 
BRANCH  11  13
ATOM     13  C   UNL     1      -2.727  -0.332   0.001  0.00  0.00    +0.000 C 
ATOM     14  O   UNL     1      -2.819  -0.944   1.049  0.00  0.00    +0.000 OA
ATOM     15  N   UNL     1      -2.833  -0.987  -1.173  0.00  0.00    +0.000 N 
ATOM     16  H   UNL     1      -2.755  -0.469  -2.060  0.00  0.00    +0.000 HD
ATOM     17  H   UNL     1      -2.991  -2.004  -1.183  0.00  0.00    +0.000 HD
ENDBRANCH  11  13
ENDBRANCH   1  10
BRANCH   2  18
ATOM     18  C   UNL     1       2.462   0.920  -0.017  0.00  0.00    +0.000 C 
BRANCH  18  19
ATOM     19  O   UNL     1       3.553   1.878  -0.022  0.00  0.00    +0.000 OA
BRANCH  19  20
ATOM     20  C   UNL     1       4.800   1.382  -0.036  0.00  0.00    +0.000 C 
ATOM     21  O   UNL     1       4.974   0.187  -0.044  0.00  0.00    +0.000 OA
BRANCH  20  22
ATOM     22  C   UNL     1       5.982   2.316  -0.043  0.00  0.00    +0.000 C 
BRANCH  22  23
ATOM     23  C   UNL     1       7.277   1.501  -0.059  0.00  0.00    +0.000 C 
BRANCH  23  24
ATOM     24  C   UNL     1       8.477   2.449  -0.066  0.00  0.00    +0.000 C 
ATOM     25  C   UNL     1       9.775   1.667  -0.011  0.00  0.00    +0.000 C 
ATOM     26  O   UNL     1      10.145   0.923   0.871  0.00  0.00    +0.000 OA
ATOM     27  N   UNL     1      10.431   1.971  -1.148  0.00  0.00    +0.000 N 
ATOM     28  C   UNL     1       9.736   2.827  -1.906  0.00  0.00    +0.000 C 
ATOM     29  O   UNL     1      10.123   3.248  -2.978  0.00  0.00    +0.000 OA
ATOM     30  N   UNL     1       8.559   3.173  -1.346  0.00  0.00    +0.000 NA
ATOM     31  H   UNL     1      11.354   1.591  -1.403  0.00  0.00    +0.000 HD
ENDBRANCH  23  24
ENDBRANCH  22  23
ENDBRANCH  20  22
ENDBRANCH  19  20
ENDBRANCH  18  19
ENDBRANCH   2  18
TORSDOF 8
ENDMDL
MODEL     1033
REMARK  Name = ZINC24227259
REMARK  8 active torsions:
REMARK  status: ('A' for Active; 'I' for Inactive)
REMARK    1  A    between atoms: C_1  and  C_2
REMARK    2  A    between atoms: C_2  and  C_3
REMARK    3  A    between atoms: C_2  and  N_10
REMARK    4  A    between atoms: N_10  and  C_11
REMARK    5  A    between atoms: C_11  and  C_12
REMARK    6  A    between atoms: N_14  and  N_15
REMARK    7  A    between atoms: C_16  and  C_18
REMARK    8  A    between atoms: C_18  and  C_19
REMARK                            x       y       z     vdW  Elec       q    Type
REMARK                         _______ _______ _______ _____ _____    ______ ____
ROOT
ATOM      1  C   UNL     1      -0.718   1.572   1.248  0.00  0.00    +0.000 C 
ATOM      2  O   UNL     1      -1.714   2.256   1.150  0.00  0.00    +0.000 OA
ATOM      3  N   UNL     1      -0.242   1.246   2.466  0.00  0.00    +0.000 N 
ATOM      4  H   UNL     1       0.605   0.665   2.549  0.00  0.00    +0.000 HD
ENDROOT
BRANCH   3   5
ATOM      5  N   UNL     1      -0.897   1.698   3.618  0.00  0.00    +0.000 N 
ATOM      6  C   UNL     1      -0.421   1.372   4.836  0.00  0.00    +0.000 C 
ATOM      7  O   UNL     1       0.576   0.688   4.934  0.00  0.00    +0.000 OA
ATOM      8  H   UNL     1      -1.744   2.279   3.535  0.00  0.00    +0.000 HD
BRANCH   6   9
ATOM      9  C   UNL     1      -1.126   1.858   6.076  0.00  0.00    +0.000 C 
BRANCH   9  10
ATOM     10  C   UNL     1      -0.386   1.351   7.316  0.00  0.00    +0.000 C 
ATOM     11  C   UNL     1       1.018   1.975   7.362  0.00  0.00    +0.000 C 
ATOM     12  C   UNL     1       1.624   1.700   8.769  0.00  0.00    +0.000 C 
ATOM     13  S   UNL     1       0.148   1.988   9.833  0.00  0.00    +0.000 S 
ATOM     14  O   UNL     1       0.141   3.344  10.257  0.00  0.00    +0.000 OA
ATOM     15  O   UNL     1       0.068   0.952  10.802  0.00  0.00    +0.000 OA
ATOM     16  C   UNL     1      -1.181   1.744   8.585  0.00  0.00    +0.000 C 
ENDBRANCH   9  10
ENDBRANCH   6   9
ENDBRANCH   3   5
BRANCH   1  17
ATOM     17  C   UNL     1      -0.013   1.086   0.008  0.00  0.00    +0.000 C 
BRANCH  17  18
ATOM     18  N   UNL     1      -0.723   1.572  -1.182  0.00  0.00    +0.000 N 
ATOM     19  H   UNL     1      -0.743   2.602  -1.168  0.00  0.00    +0.000 HD
ATOM     20  H   UNL     1      -1.692   1.222  -1.166  0.00  0.00    +0.000 HD
BRANCH  18  22
ATOM     21  C   UNL     1      -0.560  -0.285  -2.770  0.00  0.00    +0.000 C 
ATOM     22  C   UNL     1      -0.062   1.117  -2.413  0.00  0.00    +0.000 C 
BRANCH  22  23
ATOM     23  C   UNL     1      -0.386   2.067  -3.537  0.00  0.00    +0.000 A 
ATOM     24  C   UNL     1      -1.663   2.582  -3.660  0.00  0.00    +0.000 A 
ATOM     25  C   UNL     1      -1.958   3.458  -4.689  0.00  0.00    +0.000 A 
ATOM     26  C   UNL     1      -0.980   3.808  -5.601  0.00  0.00    +0.000 A 
ATOM     27  C   UNL     1       0.296   3.287  -5.481  0.00  0.00    +0.000 A 
ATOM     28  C   UNL     1       0.593   2.417  -4.449  0.00  0.00    +0.000 A 
ATOM     29 CL   UNL     1      -1.352   4.902  -6.896  0.00  0.00    +0.000 Cl
ENDBRANCH  22  23
ENDBRANCH  18  22
ENDBRANCH  17  18
ENDBRANCH   1  17
TORSDOF 7
ENDMDL
MODEL     1034
REMARK  Name = ZINC02242801
REMARK  10 active torsions:
REMARK  status: ('A' for Active; 'I' for Inactive)
REMARK    1  A    between atoms: C_1  and  C_2
REMARK    2  A    between atoms: C_2  and  N_3
REMARK    3  A    between atoms: N_3  and  C_4
REMARK    4  A    between atoms: N_3  and  C_6
REMARK    5  A    between atoms: C_4  and  C_5
REMARK    6  A    between atoms: C_6  and  C_7
REMARK    7  A    between atoms: C_8  and  C_18
REMARK    8  A    between atoms: N_20  and  N_21
REMARK    9  A    between atoms: C_22  and  C_23
REMARK   10  A    between atoms: C_26  and  C_28
REMARK                            x       y       z     vdW  Elec       q    Type
REMARK                         _______ _______ _______ _____ _____    ______ ____
ROOT
ATOM      1  C   UNL     1      -0.059  -0.232   1.036  0.00  0.00    +0.000 A 
ATOM      2  C   UNL     1      -1.013  -0.187   2.019  0.00  0.00    +0.000 A 
ATOM      3  N   UNL     1      -0.417  -0.721   3.135  0.00  0.00    +0.000 N 
ATOM      4  N   UNL     1       0.787  -1.050   2.821  0.00  0.00    +0.000 NA
ATOM      5  N   UNL     1       1.025  -0.778   1.588  0.00  0.00    +0.000 NA
ATOM      6  C   UNL     1      -1.013  -0.880   4.390  0.00  0.00    +0.000 A 
ATOM      7  C   UNL     1      -0.341  -1.349   5.606  0.00  0.00    +0.000 A 
ATOM      8  N   UNL     1      -1.214  -1.367   6.576  0.00  0.00    +0.000 NA
ATOM      9  O   UNL     1      -2.453  -0.923   6.053  0.00  0.00    +0.000 OA
ATOM     10  N   UNL     1      -2.259  -0.630   4.681  0.00  0.00    +0.000 NA
ATOM     11  N   UNL     1       0.997  -1.714   5.707  0.00  0.00    +0.000 N 
ATOM     12  H   UNL     1       1.546  -1.640   4.839  0.00  0.00    +0.000 HD
ATOM     13  H   UNL     1       1.426  -2.039   6.585  0.00  0.00    +0.000 HD
ENDROOT
BRANCH   2  14
ATOM     14  C   UNL     1      -2.387   0.326   1.904  0.00  0.00    +0.000 C 
ATOM     15  O   UNL     1      -2.599   1.522   1.979  0.00  0.00    +0.000 OA
ATOM     16  N   UNL     1      -3.412  -0.529   1.714  0.00  0.00    +0.000 N 
ATOM     17  H   UNL     1      -3.226  -1.533   1.575  0.00  0.00    +0.000 HD
BRANCH  16  18
ATOM     18  N   UNL     1      -4.729  -0.052   1.704  0.00  0.00    +0.000 NA
ATOM     19  C   UNL     1      -5.718  -0.877   1.520  0.00  0.00    +0.000 C 
BRANCH  19  20
ATOM     20  C   UNL     1      -7.096  -0.379   1.510  0.00  0.00    +0.000 A 
ATOM     21  C   UNL     1      -8.220  -1.131   1.324  0.00  0.00    +0.000 A 
ATOM     22  C   UNL     1      -9.314  -0.249   1.394  0.00  0.00    +0.000 A 
ATOM     23  C   UNL     1      -8.814   0.986   1.608  0.00  0.00    +0.000 A 
ATOM     24  O   UNL     1      -7.476   0.904   1.677  0.00  0.00    +0.000 OA
ATOM     25  C   UNL     1      -9.625   2.249   1.745  0.00  0.00    +0.000 C 
ENDBRANCH  19  20
ENDBRANCH  16  18
ENDBRANCH   2  14
BRANCH   1  26
ATOM     26  C   UNL     1      -0.209   0.236  -0.389  0.00  0.00    +0.000 C 
BRANCH  26  27
ATOM     27  N   UNL     1       0.182   1.649  -0.484  0.00  0.00    +0.000 NA
BRANCH  27  28
ATOM     28  C   UNL     1      -0.171   2.206  -1.796  0.00  0.00    +0.000 C 
ATOM     29  C   UNL     1      -0.009   3.727  -1.765  0.00  0.00    +0.000 C 
ENDBRANCH  27  28
BRANCH  27  31
ATOM     30  C   UNL     1       2.429   1.068  -1.265  0.00  0.00    +0.000 C 
ATOM     31  C   UNL     1       1.615   1.818  -0.208  0.00  0.00    +0.000 C 
ENDBRANCH  27  31
ENDBRANCH  26  27
ENDBRANCH   1  26
TORSDOF 7
ENDMDL
MODEL     1035
REMARK  Name = ZINC27455917
REMARK  10 active torsions:
REMARK  status: ('A' for Active; 'I' for Inactive)
REMARK    1  A    between atoms: C_1  and  C_2
REMARK    2  A    between atoms: C_2  and  C_26
REMARK    3  A    between atoms: N_5  and  C_9
REMARK    4  A    between atoms: C_9  and  C_10
REMARK    5  A    between atoms: N_12  and  C_13
REMARK    6  A    between atoms: C_18  and  C_19
REMARK    7  A    between atoms: N_21  and  C_22
REMARK    8  A    between atoms: C_22  and  C_23
REMARK    9  A    between atoms: C_23  and  O_24
REMARK   10  A    between atoms: O_24  and  C_25
REMARK                            x       y       z     vdW  Elec       q    Type
REMARK                         _______ _______ _______ _____ _____    ______ ____
ROOT
ATOM      1  C   UNL     1      -5.002   3.526   0.426  0.00  0.00    +0.000 C 
ATOM      2  O   UNL     1      -5.992   2.851   0.611  0.00  0.00    +0.000 OA
ATOM      3  N   UNL     1      -3.810   2.931   0.222  0.00  0.00    +0.000 N 
ATOM      4  H   UNL     1      -2.956   3.502   0.146  0.00  0.00    +0.000 HD
ENDROOT
BRANCH   3   5
ATOM      5  C   UNL     1      -3.732   1.544   0.115  0.00  0.00    +0.000 A 
ATOM      6  C   UNL     1      -4.760   0.833  -0.490  0.00  0.00    +0.000 A 
ATOM      7  C   UNL     1      -4.681  -0.541  -0.595  0.00  0.00    +0.000 A 
ATOM      8  C   UNL     1      -3.580  -1.220  -0.099  0.00  0.00    +0.000 A 
ATOM      9  C   UNL     1      -2.549  -0.531   0.500  0.00  0.00    +0.000 A 
ATOM     10  C   UNL     1      -2.616   0.860   0.618  0.00  0.00    +0.000 A 
BRANCH  10  11
ATOM     11  C   UNL     1      -1.518   1.604   1.263  0.00  0.00    +0.000 C 
ATOM     12  O   UNL     1      -1.535   2.819   1.280  0.00  0.00    +0.000 OA
ATOM     13  N   UNL     1      -0.496   0.936   1.834  0.00  0.00    +0.000 N 
ATOM     14  H   UNL     1      -0.484  -0.094   1.824  0.00  0.00    +0.000 HD
BRANCH  13  15
ATOM     15  C   UNL     1       0.598   1.675   2.469  0.00  0.00    +0.000 C 
BRANCH  15  16
ATOM     16  C   UNL     1       1.624   0.687   3.028  0.00  0.00    +0.000 C 
BRANCH  16  17
ATOM     17  O   UNL     1       2.229  -0.032   1.952  0.00  0.00    +0.000 OA
ATOM     18  C   UNL     1       3.208  -0.987   2.368  0.00  0.00    +0.000 C 
ENDBRANCH  16  17
ENDBRANCH  15  16
ENDBRANCH  13  15
ENDBRANCH  10  11
ENDBRANCH   3   5
BRANCH   1  19
ATOM     19  C   UNL     1      -5.104   5.029   0.423  0.00  0.00    +0.000 C 
BRANCH  19  24
ATOM     20  C   UNL     1      -9.403   5.021   2.320  0.00  0.00    +0.000 C 
ATOM     21  C   UNL     1      -8.464   6.027   1.651  0.00  0.00    +0.000 C 
ATOM     22  C   UNL     1      -7.017   5.644   1.887  0.00  0.00    +0.000 C 
ATOM     23  O   UNL     1      -6.448   5.554   2.954  0.00  0.00    +0.000 OA
ATOM     24  N   UNL     1      -6.494   5.425   0.665  0.00  0.00    +0.000 N 
ATOM     25  C   UNL     1      -7.399   5.618  -0.301  0.00  0.00    +0.000 C 
ATOM     26  O   UNL     1      -7.162   5.484  -1.486  0.00  0.00    +0.000 OA
ATOM     27  N   UNL     1      -8.602   5.973   0.185  0.00  0.00    +0.000 NA
BRANCH  21  28
ATOM     28  C   UNL     1      -8.738   7.441   2.166  0.00  0.00    +0.000 C 
ATOM     29  C   UNL     1      -9.548   7.579   3.457  0.00  0.00    +0.000 C 
ATOM     30  C   UNL     1     -10.182   7.945   2.113  0.00  0.00    +0.000 C 
ENDBRANCH  21  28
ENDBRANCH  19  24
ENDBRANCH   1  19
TORSDOF 8
ENDMDL
MODEL     1036
REMARK  Name = ZINC25555068
REMARK  9 active torsions:
REMARK  status: ('A' for Active; 'I' for Inactive)
REMARK    1  A    between atoms: C_1  and  C_2
REMARK    2  A    between atoms: N_4  and  C_5
REMARK    3  A    between atoms: C_8  and  C_11
REMARK    4  A    between atoms: C_11  and  N_12
REMARK    5  A    between atoms: C_13  and  C_15
REMARK    6  A    between atoms: C_15  and  N_16
REMARK    7  A    between atoms: C_17  and  C_19
REMARK    8  A    between atoms: C_19  and  N_20
REMARK    9  A    between atoms: C_21  and  C_23
REMARK                            x       y       z     vdW  Elec       q    Type
REMARK                         _______ _______ _______ _____ _____    ______ ____
ROOT
ATOM      1  N   UNL     1      -0.971   8.390   1.030  0.00  0.00    +0.000 N 
ATOM      2  C   UNL     1      -0.925   9.726   1.197  0.00  0.00    +0.000 C 
ATOM      3  O   UNL     1      -0.951  10.459   0.231  0.00  0.00    +0.000 OA
ATOM      4  H   UNL     1      -0.950   7.768   1.851  0.00  0.00    +0.000 HD
ENDROOT
BRANCH   1   5
ATOM      5  C   UNL     1      -1.051   7.822  -0.318  0.00  0.00    +0.000 C 
BRANCH   5   9
ATOM      6  C   UNL     1      -1.159   3.557  -0.063  0.00  0.00    +0.000 A 
ATOM      7  C   UNL     1       0.059   4.218  -0.156  0.00  0.00    +0.000 A 
ATOM      8  C   UNL     1       0.090   5.596  -0.244  0.00  0.00    +0.000 A 
ATOM      9  C   UNL     1      -1.089   6.318  -0.228  0.00  0.00    +0.000 A 
ATOM     10  C   UNL     1      -2.303   5.663  -0.130  0.00  0.00    +0.000 A 
ATOM     11  C   UNL     1      -2.341   4.285  -0.048  0.00  0.00    +0.000 A 
BRANCH   6  15
ATOM     12  C   UNL     1      -2.182  -0.031  -0.565  0.00  0.00    +0.000 C 
ATOM     13  C   UNL     1      -2.198   1.476  -0.564  0.00  0.00    +0.000 C 
ATOM     14  O   UNL     1      -3.117   2.073  -1.085  0.00  0.00    +0.000 OA
ATOM     15  N   UNL     1      -1.195   2.161   0.019  0.00  0.00    +0.000 N 
ATOM     16  H   UNL     1      -0.454   1.656   0.527  0.00  0.00    +0.000 HD
ENDBRANCH   6  15
ENDBRANCH   5   9
ENDBRANCH   1   5
BRANCH   2  17
ATOM     17  C   UNL     1      -0.843  10.311   2.584  0.00  0.00    +0.000 C 
BRANCH  17  18
ATOM     18  N   UNL     1      -0.806  11.773   2.496  0.00  0.00    +0.000 N 
ATOM     19  C   UNL     1      -0.732  12.513   3.620  0.00  0.00    +0.000 C 
ATOM     20  O   UNL     1      -0.696  11.969   4.704  0.00  0.00    +0.000 OA
ATOM     21  H   UNL     1      -0.837  12.235   1.576  0.00  0.00    +0.000 HD
BRANCH  19  22
ATOM     22  C   UNL     1      -0.694  14.017   3.530  0.00  0.00    +0.000 C 
BRANCH  22  23
ATOM     23  N   UNL     1      -0.614  14.585   4.878  0.00  0.00    +0.000 N 
ATOM     24  C   UNL     1      -0.568  15.921   5.045  0.00  0.00    +0.000 C 
ATOM     25  O   UNL     1      -0.594  16.657   4.075  0.00  0.00    +0.000 OA
ATOM     26  H   UNL     1      -0.593  13.963   5.699  0.00  0.00    +0.000 HD
BRANCH  24  27
ATOM     27  C   UNL     1      -0.488  16.490   6.394  0.00  0.00    +0.000 A 
ATOM     28  C   UNL     1      -0.427  17.820   6.779  0.00  0.00    +0.000 A 
ATOM     29  C   UNL     1      -0.360  18.078   8.126  0.00  0.00    +0.000 A 
ATOM     30  C   UNL     1      -0.348  17.038   9.001  0.00  0.00    +0.000 A 
ATOM     31  S   UNL     1      -0.437  15.649   7.967  0.00  0.00    +0.000 S 
ENDBRANCH  24  27
ENDBRANCH  22  23
ENDBRANCH  19  22
ENDBRANCH  17  18
ENDBRANCH   2  17
TORSDOF 8
ENDMDL
MODEL     1037
REMARK  Name = ZINC06282102
REMARK  13 active torsions:
REMARK  status: ('A' for Active; 'I' for Inactive)
REMARK    1  A    between atoms: C_1  and  C_2
REMARK    2  A    between atoms: C_5  and  O_10
REMARK    3  A    between atoms: C_6  and  O_8
REMARK    4  A    between atoms: O_8  and  C_9
REMARK    5  A    between atoms: O_10  and  C_11
REMARK    6  A    between atoms: C_11  and  C_12
REMARK    7  A    between atoms: C_12  and  O_14
REMARK    8  A    between atoms: O_14  and  C_15
REMARK    9  A    between atoms: C_15  and  C_16
REMARK   10  A    between atoms: C_16  and  C_18
REMARK   11  A    between atoms: C_19  and  N_28
REMARK   12  A    between atoms: N_20  and  C_27
REMARK   13  A    between atoms: N_23  and  C_26
REMARK                            x       y       z     vdW  Elec       q    Type
REMARK                         _______ _______ _______ _____ _____    ______ ____
ROOT
ATOM      1  C   UNL     1       5.287  -2.651  -0.011  0.00  0.00    +0.000 C 
ENDROOT
BRANCH   1   2
ATOM      2  C   UNL     1       5.308  -4.157  -0.051  0.00  0.00    +0.000 C 
ATOM      3  O   UNL     1       4.265  -4.779  -0.060  0.00  0.00    +0.000 OA
BRANCH   2   4
ATOM      4  C   UNL     1       6.540  -4.846  -0.079  0.00  0.00    +0.000 A 
ATOM      5  C   UNL     1       6.589  -6.248   0.006  0.00  0.00    +0.000 A 
ATOM      6  N   UNL     1       7.805  -6.869  -0.030  0.00  0.00    +0.000 N 
ATOM      7  C   UNL     1       8.944  -6.167  -0.134  0.00  0.00    +0.000 A 
ATOM      8  O   UNL     1      10.001  -6.767  -0.157  0.00  0.00    +0.000 OA
ATOM      9  N   UNL     1       8.960  -4.827  -0.213  0.00  0.00    +0.000 N 
ATOM     10  C   UNL     1       7.811  -4.119  -0.191  0.00  0.00    +0.000 A 
ATOM     11  O   UNL     1       7.828  -2.904  -0.264  0.00  0.00    +0.000 OA
ATOM     12  C   UNL     1      10.240  -4.123  -0.324  0.00  0.00    +0.000 C 
ATOM     13  C   UNL     1       7.867  -8.330   0.052  0.00  0.00    +0.000 C 
BRANCH   5  14
ATOM     14  N   UNL     1       5.445  -6.974   0.118  0.00  0.00    +0.000 N 
ATOM     15  H   UNL     1       4.535  -6.491   0.140  0.00  0.00    +0.000 HD
ATOM     16  H   UNL     1       5.486  -8.002   0.180  0.00  0.00    +0.000 HD
ENDBRANCH   5  14
ENDBRANCH   2   4
ENDBRANCH   1   2
BRANCH   1  17
ATOM     17  O   UNL     1       3.912  -2.187   0.012  0.00  0.00    +0.000 OA
BRANCH  17  18
ATOM     18  C   UNL     1       3.717  -0.859   0.049  0.00  0.00    +0.000 C 
ATOM     19  O   UNL     1       4.665  -0.110   0.062  0.00  0.00    +0.000 OA
BRANCH  18  20
ATOM     20  C   UNL     1       2.317  -0.303   0.074  0.00  0.00    +0.000 C 
BRANCH  20  21
ATOM     21  O   UNL     1       2.372   1.125   0.112  0.00  0.00    +0.000 OA
BRANCH  21  26
ATOM     22  C   UNL     1      -2.550   3.869   0.219  0.00  0.00    +0.000 C 
ATOM     23  C   UNL     1      -1.233   3.137   0.191  0.00  0.00    +0.000 A 
ATOM     24  C   UNL     1      -1.212   1.756   0.148  0.00  0.00    +0.000 A 
ATOM     25  C   UNL     1      -0.006   1.080   0.128  0.00  0.00    +0.000 A 
ATOM     26  C   UNL     1       1.185   1.788   0.138  0.00  0.00    +0.000 A 
ATOM     27  C   UNL     1       1.164   3.179   0.175  0.00  0.00    +0.000 A 
ATOM     28  C   UNL     1      -0.049   3.850   0.201  0.00  0.00    +0.000 A 
BRANCH  27  29
ATOM     29  O   UNL     1       2.330   3.878   0.186  0.00  0.00    +0.000 OA
ATOM     30  C   UNL     1       2.232   5.303   0.224  0.00  0.00    +0.000 C 
ENDBRANCH  27  29
ENDBRANCH  21  26
ENDBRANCH  20  21
ENDBRANCH  18  20
ENDBRANCH  17  18
ENDBRANCH   1  17
TORSDOF 9
ENDMDL
MODEL     1038
REMARK  Name = ZINC17430523
REMARK  10 active torsions:
REMARK  status: ('A' for Active; 'I' for Inactive)
REMARK    1  A    between atoms: C_4  and  C_7
REMARK    2  A    between atoms: C_7  and  O_8
REMARK    3  A    between atoms: O_8  and  N_9
REMARK    4  A    between atoms: C_10  and  C_11
REMARK    5  A    between atoms: C_12  and  N_25
REMARK    6  A    between atoms: N_13  and  C1*_16
REMARK    7  A    between atoms: C2*_17  and  O2*_24
REMARK    8  A    between atoms: C3*_18  and  O3*_23
REMARK    9  A    between atoms: C4*_19  and  C5*_21
REMARK   10  A    between atoms: C5*_21  and  O5*_22
REMARK                            x       y       z     vdW  Elec       q    Type
REMARK                         _______ _______ _______ _____ _____    ______ ____
ROOT
ATOM      1  C   UNL     1       0.824   6.401   4.191  0.00  0.00    +0.000 A 
ATOM      2  C   UNL     1       1.405   6.997   3.087  0.00  0.00    +0.000 A 
ATOM      3  N   UNL     1       1.925   5.985   2.332  0.00  0.00    +0.000 N 
ATOM      4  C   UNL     1       1.666   4.814   2.978  0.00  0.00    +0.000 A 
ATOM      5  N   UNL     1       1.016   5.062   4.076  0.00  0.00    +0.000 NA
ENDROOT
BRANCH   3   6
ATOM      6  C1* UNL     1       2.636   6.132   1.060  0.00  0.00    +0.000 C 
ATOM      7  C2* UNL     1       4.162   6.266   1.297  0.00  0.00    +0.000 C 
ATOM      8  C3* UNL     1       4.744   5.776  -0.052  0.00  0.00    +0.000 C 
ATOM      9  C4* UNL     1       3.608   4.940  -0.672  0.00  0.00    +0.000 C 
ATOM     10  O4* UNL     1       2.522   4.929   0.271  0.00  0.00    +0.000 OA
BRANCH   7  11
ATOM     11  O2* UNL     1       4.587   5.425   2.371  0.00  0.00    +0.000 OA
ATOM     12  H2* UNL     1       4.368   4.486   2.149  0.00  0.00    +0.000 HD
ENDBRANCH   7  11
BRANCH   8  13
ATOM     13  O3* UNL     1       5.064   6.887  -0.892  0.00  0.00    +0.000 OA
ATOM     14  H3* UNL     1       5.730   7.458  -0.433  0.00  0.00    +0.000 HD
ENDBRANCH   8  13
BRANCH   9  15
ATOM     15  C5* UNL     1       4.091   3.511  -0.926  0.00  0.00    +0.000 C 
BRANCH  15  16
ATOM     16  O5* UNL     1       3.065   2.772  -1.591  0.00  0.00    +0.000 OA
ATOM     17  H5* UNL     1       2.852   3.206  -2.455  0.00  0.00    +0.000 HD
ENDBRANCH  15  16
ENDBRANCH   9  15
ENDBRANCH   3   6
BRANCH   1  19
ATOM     18  N   UNL     1      -0.398   6.366   6.338  0.00  0.00    +0.000 N 
ATOM     19  C   UNL     1       0.132   7.093   5.291  0.00  0.00    +0.000 C 
ATOM     20  N   UNL     1       0.050   8.417   5.217  0.00  0.00    +0.000 NA
ATOM     21  H   UNL     1      -0.309   5.340   6.349  0.00  0.00    +0.000 HD
ATOM     22  H   UNL     1      -0.432   8.912   5.981  0.00  0.00    +0.000 HD
BRANCH  18  23
ATOM     23  O   UNL     1      -1.064   7.031   7.396  0.00  0.00    +0.000 OA
BRANCH  23  24
ATOM     24  C   UNL     1      -1.562   6.156   8.410  0.00  0.00    +0.000 C 
BRANCH  24  28
ATOM     25  C   UNL     1      -3.508   8.451  11.442  0.00  0.00    +0.000 A 
ATOM     26  C   UNL     1      -4.229   7.983  10.360  0.00  0.00    +0.000 A 
ATOM     27  C   UNL     1      -3.599   7.240   9.379  0.00  0.00    +0.000 A 
ATOM     28  C   UNL     1      -2.248   6.966   9.480  0.00  0.00    +0.000 A 
ATOM     29  C   UNL     1      -1.528   7.429  10.565  0.00  0.00    +0.000 A 
ATOM     30  C   UNL     1      -2.157   8.176  11.543  0.00  0.00    +0.000 A 
ENDBRANCH  24  28
ENDBRANCH  23  24
ENDBRANCH  18  23
ENDBRANCH   1  19
BRANCH   2  31
ATOM     31  N   UNL     1       1.449   8.354   2.802  0.00  0.00    +0.000 N 
ATOM     32  C   UNL     1       0.855   8.829   1.689  0.00  0.00    +0.000 C 
ATOM     33  O   UNL     1       0.203   8.085   0.986  0.00  0.00    +0.000 OA
ATOM     34  H   UNL     1       1.936   8.999   3.440  0.00  0.00    +0.000 HD
ENDBRANCH   2  31
TORSDOF 10
ENDMDL
MODEL     1039
REMARK  Name = ZINC03365459
REMARK  10 active torsions:
REMARK  status: ('A' for Active; 'I' for Inactive)
REMARK    1  A    between atoms: C_1  and  O_2
REMARK    2  A    between atoms: O_2  and  C_3
REMARK    3  A    between atoms: C_3  and  C_4
REMARK    4  A    between atoms: N_6  and  N_7
REMARK    5  A    between atoms: C_8  and  C_10
REMARK    6  A    between atoms: C_14  and  S_16
REMARK    7  A    between atoms: S_16  and  N_19
REMARK    8  A    between atoms: N_19  and  C_20
REMARK    9  A    between atoms: C_25  and  O_26
REMARK   10  A    between atoms: O_26  and  C_27
REMARK                            x       y       z     vdW  Elec       q    Type
REMARK                         _______ _______ _______ _____ _____    ______ ____
ROOT
ATOM      1  C   UNL     1      -0.339   6.900   3.707  0.00  0.00    +0.000 A 
ATOM      2  C   UNL     1       0.882   6.795   4.375  0.00  0.00    +0.000 A 
ATOM      3  C   UNL     1       1.150   5.683   5.146  0.00  0.00    +0.000 A 
ATOM      4  C   UNL     1       0.208   4.675   5.263  0.00  0.00    +0.000 A 
ATOM      5  C   UNL     1      -1.002   4.771   4.599  0.00  0.00    +0.000 A 
ATOM      6  C   UNL     1      -1.282   5.878   3.825  0.00  0.00    +0.000 A 
ENDROOT
BRANCH   1   8
ATOM      7  N   UNL     1       0.281   9.074   2.768  0.00  0.00    +0.000 N 
ATOM      8  C   UNL     1      -0.632   8.089   2.879  0.00  0.00    +0.000 C 
ATOM      9  O   UNL     1      -1.696   8.178   2.299  0.00  0.00    +0.000 OA
ATOM     10  H   UNL     1       1.183   8.999   3.259  0.00  0.00    +0.000 HD
BRANCH   7  13
ATOM     11  C   UNL     1       0.915  11.187   1.871  0.00  0.00    +0.000 C 
ATOM     12  O   UNL     1       1.977  11.098   2.450  0.00  0.00    +0.000 OA
ATOM     13  N   UNL     1       0.003  10.201   1.983  0.00  0.00    +0.000 N 
ATOM     14  H   UNL     1      -0.899  10.277   1.491  0.00  0.00    +0.000 HD
BRANCH  11  15
ATOM     15  C   UNL     1       0.616  12.399   1.027  0.00  0.00    +0.000 C 
BRANCH  15  17
ATOM     16  C   UNL     1       1.548  14.482   0.295  0.00  0.00    +0.000 C 
ATOM     17  O   UNL     1       1.730  13.293   1.067  0.00  0.00    +0.000 OA
ENDBRANCH  15  17
ENDBRANCH  11  15
ENDBRANCH   7  13
ENDBRANCH   1   8
BRANCH   5  18
ATOM     18  S   UNL     1      -2.191   3.480   4.750  0.00  0.00    +0.000 S 
ATOM     19  O   UNL     1      -3.459   4.061   4.477  0.00  0.00    +0.000 OA
ATOM     20  O   UNL     1      -1.908   2.807   5.969  0.00  0.00    +0.000 OA
BRANCH  18  21
ATOM     21  N   UNL     1      -1.895   2.397   3.532  0.00  0.00    +0.000 NA
BRANCH  21  22
ATOM     22  C   UNL     1      -0.659   1.746   3.459  0.00  0.00    +0.000 A 
ATOM     23  C   UNL     1       0.004   1.381   4.622  0.00  0.00    +0.000 A 
ATOM     24  C   UNL     1       1.228   0.743   4.548  0.00  0.00    +0.000 A 
ATOM     25  C   UNL     1       1.791   0.462   3.317  0.00  0.00    +0.000 A 
ATOM     26  C   UNL     1       1.134   0.817   2.154  0.00  0.00    +0.000 A 
ATOM     27  C   UNL     1      -0.093   1.457   2.220  0.00  0.00    +0.000 A 
BRANCH  27  28
ATOM     28  O   UNL     1      -0.741   1.808   1.076  0.00  0.00    +0.000 OA
ATOM     29  C   UNL     1      -0.098   1.485  -0.159  0.00  0.00    +0.000 C 
ENDBRANCH  27  28
ENDBRANCH  21  22
ENDBRANCH  18  21
ENDBRANCH   5  18
TORSDOF 8
ENDMDL
MODEL     1040
REMARK  Name = ZINC30923571
REMARK  9 active torsions:
REMARK  status: ('A' for Active; 'I' for Inactive)
REMARK    1  A    between atoms: C_1  and  S_2
REMARK    2  A    between atoms: S_2  and  N_5
REMARK    3  A    between atoms: N_5  and  C_6
REMARK    4  A    between atoms: C_9  and  C_12
REMARK    5  A    between atoms: C_13  and  C_14
REMARK    6  A    between atoms: N_16  and  C_17
REMARK    7  A    between atoms: C_21  and  O_23
REMARK    8  A    between atoms: O_23  and  C_24
REMARK    9  A    between atoms: C_24  and  C_25
REMARK                            x       y       z     vdW  Elec       q    Type
REMARK                         _______ _______ _______ _____ _____    ______ ____
ROOT
ATOM      1  C   UNL     1       1.714   5.948  -0.496  0.00  0.00    +0.000 C 
ATOM      2  O   UNL     1       2.821   5.447  -0.573  0.00  0.00    +0.000 OA
ATOM      3  N   UNL     1       0.616   5.178  -0.628  0.00  0.00    +0.000 N 
ATOM      4  H   UNL     1      -0.319   5.611  -0.634  0.00  0.00    +0.000 HD
ENDROOT
BRANCH   3   5
ATOM      5  C   UNL     1       0.745   3.792  -0.756  0.00  0.00    +0.000 A 
ATOM      6  C   UNL     1      -0.200   2.949  -0.184  0.00  0.00    +0.000 A 
ATOM      7  C   UNL     1      -0.072   1.580  -0.310  0.00  0.00    +0.000 A 
ATOM      8  C   UNL     1       0.996   1.044  -1.005  0.00  0.00    +0.000 A 
ATOM      9  C   UNL     1       1.946   1.881  -1.574  0.00  0.00    +0.000 A 
ATOM     10  C   UNL     1       1.818   3.256  -1.455  0.00  0.00    +0.000 A 
BRANCH   9  11
ATOM     11  O   UNL     1       2.999   1.352  -2.252  0.00  0.00    +0.000 OA
BRANCH  11  12
ATOM     12  C   UNL     1       3.064  -0.072  -2.340  0.00  0.00    +0.000 C 
BRANCH  12  13
ATOM     13  C   UNL     1       4.289  -0.472  -3.122  0.00  0.00    +0.000 C 
ATOM     14  O   UNL     1       5.033   0.380  -3.560  0.00  0.00    +0.000 OA
ATOM     15  N   UNL     1       4.559  -1.775  -3.333  0.00  0.00    +0.000 N 
ATOM     16  H   UNL     1       3.927  -2.499  -2.961  0.00  0.00    +0.000 HD
ATOM     17  H   UNL     1       5.396  -2.048  -3.868  0.00  0.00    +0.000 HD
ENDBRANCH  12  13
ENDBRANCH  11  12
ENDBRANCH   9  11
ENDBRANCH   3   5
BRANCH   1  19
ATOM     18  C   UNL     1       2.677   8.155  -0.126  0.00  0.00    +0.000 C 
ATOM     19  C   UNL     1       1.577   7.384  -0.259  0.00  0.00    +0.000 C 
BRANCH  18  23
ATOM     20  C   UNL     1       2.277  12.317   0.558  0.00  0.00    +0.000 A 
ATOM     21  C   UNL     1       3.545  11.746   0.471  0.00  0.00    +0.000 A 
ATOM     22  C   UNL     1       3.679  10.400   0.249  0.00  0.00    +0.000 A 
ATOM     23  C   UNL     1       2.539   9.598   0.112  0.00  0.00    +0.000 A 
ATOM     24  C   UNL     1       1.266  10.177   0.196  0.00  0.00    +0.000 A 
ATOM     25  C   UNL     1       1.141  11.523   0.422  0.00  0.00    +0.000 A 
BRANCH  20  26
ATOM     26  N   UNL     1       2.146  13.684   0.782  0.00  0.00    +0.000 N 
ATOM     27  H   UNL     1       2.721  14.145   1.502  0.00  0.00    +0.000 HD
BRANCH  26  29
ATOM     28  C   UNL     1       1.646  14.426  -1.821  0.00  0.00    +0.000 C 
ATOM     29  S   UNL     1       1.066  14.568  -0.108  0.00  0.00    +0.000 S 
ATOM     30  O   UNL     1      -0.173  13.890   0.047  0.00  0.00    +0.000 OA
ATOM     31  O   UNL     1       1.224  15.903   0.353  0.00  0.00    +0.000 OA
ENDBRANCH  26  29
ENDBRANCH  20  26
ENDBRANCH  18  23
ENDBRANCH   1  19
TORSDOF 8
ENDMDL
MODEL     1041
REMARK  Name = ZINC31219731
REMARK  9 active torsions:
REMARK  status: ('A' for Active; 'I' for Inactive)
REMARK    1  A    between atoms: C_1  and  C_2
REMARK    2  A    between atoms: C_2  and  S_3
REMARK    3  A    between atoms: S_3  and  N_6
REMARK    4  A    between atoms: N_6  and  C_7
REMARK    5  A    between atoms: C_7  and  C_8
REMARK    6  A    between atoms: C_8  and  N_9
REMARK    7  A    between atoms: C_10  and  C_12
REMARK    8  A    between atoms: N_14  and  C_20
REMARK    9  A    between atoms: C_15  and  C_17
REMARK                            x       y       z     vdW  Elec       q    Type
REMARK                         _______ _______ _______ _____ _____    ______ ____
ROOT
ATOM      1  C   UNL     1      -5.331   0.329   5.272  0.00  0.00    +0.000 C 
ATOM      2  N   UNL     1      -6.116  -0.302   4.458  0.00  0.00    +0.000 NA
ATOM      3  N   UNL     1      -7.279  -0.785   5.053  0.00  0.00    +0.000 N 
ATOM      4  C   UNL     1      -7.277  -0.415   6.477  0.00  0.00    +0.000 C 
ATOM      5  C   UNL     1      -5.950   0.350   6.652  0.00  0.00    +0.000 C 
ENDROOT
BRANCH   3   6
ATOM      6  C   UNL     1      -8.288  -1.499   4.401  0.00  0.00    +0.000 A 
ATOM      7  C   UNL     1      -9.405  -1.928   5.108  0.00  0.00    +0.000 A 
ATOM      8  C   UNL     1     -10.402  -2.630   4.461  0.00  0.00    +0.000 A 
ATOM      9  C   UNL     1     -10.285  -2.916   3.111  0.00  0.00    +0.000 A 
ATOM     10  C   UNL     1      -9.170  -2.494   2.405  0.00  0.00    +0.000 A 
ATOM     11  C   UNL     1      -8.173  -1.788   3.047  0.00  0.00    +0.000 A 
ATOM     12  F   UNL     1     -11.260  -3.607   2.481  0.00  0.00    +0.000 F 
ENDBRANCH   3   6
BRANCH   4  13
ATOM     13  C   UNL     1      -7.298  -1.645   7.347  0.00  0.00    +0.000 C 
ATOM     14  O   UNL     1      -7.054  -2.732   6.867  0.00  0.00    +0.000 OA
ATOM     15  N   UNL     1      -7.588  -1.537   8.659  0.00  0.00    +0.000 N 
ATOM     16  H   UNL     1      -7.795  -0.614   9.066  0.00  0.00    +0.000 HD
ATOM     17  H   UNL     1      -7.602  -2.378   9.254  0.00  0.00    +0.000 HD
ENDBRANCH   4  13
BRANCH   1  19
ATOM     18  N   UNL     1      -3.596   0.849   3.646  0.00  0.00    +0.000 N 
ATOM     19  C   UNL     1      -4.048   0.932   4.913  0.00  0.00    +0.000 C 
ATOM     20  O   UNL     1      -3.388   1.508   5.758  0.00  0.00    +0.000 OA
ATOM     21  H   UNL     1      -4.154   0.361   2.931  0.00  0.00    +0.000 HD
BRANCH  18  22
ATOM     22  C   UNL     1      -2.311   1.453   3.285  0.00  0.00    +0.000 C 
BRANCH  22  23
ATOM     23  C   UNL     1      -2.036   1.217   1.799  0.00  0.00    +0.000 C 
BRANCH  23  24
ATOM     24  N   UNL     1      -0.751   1.822   1.438  0.00  0.00    +0.000 NA
ATOM     25  H   UNL     1      -0.304   2.498   2.073  0.00  0.00    +0.000 HD
BRANCH  24  26
ATOM     26  S   UNL     1      -0.017   1.417   0.010  0.00  0.00    +0.000 S 
ATOM     27  O   UNL     1       0.002  -0.004   0.002  0.00  0.00    +0.000 OA
ATOM     28  O   UNL     1       1.195   2.158   0.002  0.00  0.00    +0.000 OA
BRANCH  26  30
ATOM     29  C   UNL     1      -0.551   1.712  -2.657  0.00  0.00    +0.000 C 
ATOM     30  C   UNL     1      -1.135   2.034  -1.279  0.00  0.00    +0.000 C 
ENDBRANCH  26  30
ENDBRANCH  24  26
ENDBRANCH  23  24
ENDBRANCH  22  23
ENDBRANCH  18  22
ENDBRANCH   1  19
TORSDOF 8
ENDMDL
MODEL     1042
REMARK  Name = ZINC22063500
REMARK  12 active torsions:
REMARK  status: ('A' for Active; 'I' for Inactive)
REMARK    1  A    between atoms: C_1  and  N_2
REMARK    2  A    between atoms: N_2  and  C_3
REMARK    3  A    between atoms: N_2  and  N_26
REMARK    4  A    between atoms: C_3  and  C_4
REMARK    5  A    between atoms: C_4  and  C_5
REMARK    6  A    between atoms: C_5  and  C_6
REMARK    7  A    between atoms: C_6  and  C_8
REMARK    8  A    between atoms: N_12  and  C_14
REMARK    9  A    between atoms: C_15  and  O_25
REMARK   10  A    between atoms: C_16  and  O_24
REMARK   11  A    between atoms: C_17  and  O_23
REMARK   12  A    between atoms: C_18  and  C_20
REMARK                            x       y       z     vdW  Elec       q    Type
REMARK                         _______ _______ _______ _____ _____    ______ ____
ROOT
ATOM      1  C   UNL     1      -4.570  -3.019  -3.090  0.00  0.00    +0.000 A 
ATOM      2  C   UNL     1      -5.401  -3.417  -2.032  0.00  0.00    +0.000 A 
ATOM      3  C   UNL     1      -6.554  -4.117  -2.332  0.00  0.00    +0.000 A 
ATOM      4  C   UNL     1      -6.845  -4.411  -3.653  0.00  0.00    +0.000 A 
ATOM      5  N   UNL     1      -6.043  -4.029  -4.629  0.00  0.00    +0.000 N 
ATOM      6  C   UNL     1      -4.936  -3.355  -4.397  0.00  0.00    +0.000 A 
ENDROOT
BRANCH   5   7
ATOM      7  C   UNL     1      -6.395  -4.365  -6.011  0.00  0.00    +0.000 C 
ATOM      8  C   UNL     1      -5.966  -3.225  -6.938  0.00  0.00    +0.000 C 
ATOM      9  C   UNL     1      -6.732  -1.953  -6.560  0.00  0.00    +0.000 C 
ATOM     10  C   UNL     1      -8.236  -2.233  -6.639  0.00  0.00    +0.000 C 
ATOM     11  C   UNL     1      -8.577  -3.411  -5.723  0.00  0.00    +0.000 C 
ATOM     12  O   UNL     1      -7.809  -4.552  -6.111  0.00  0.00    +0.000 OA
BRANCH  11  13
ATOM     13  C   UNL     1     -10.045  -3.731  -5.841  0.00  0.00    +0.000 C 
ATOM     14  O   UNL     1     -10.398  -4.790  -6.303  0.00  0.00    +0.000 OA
ATOM     15  O   UNL     1     -10.961  -2.838  -5.433  0.00  0.00    +0.000 OA
ENDBRANCH  11  13
BRANCH   8  16
ATOM     16  O   UNL     1      -6.261  -3.574  -8.292  0.00  0.00    +0.000 OA
ATOM     17  H   UNL     1      -7.234  -3.729  -8.389  0.00  0.00    +0.000 HD
ENDBRANCH   8  16
BRANCH   9  18
ATOM     18  O   UNL     1      -6.392  -0.903  -7.467  0.00  0.00    +0.000 OA
ATOM     19  H   UNL     1      -6.634  -1.171  -8.389  0.00  0.00    +0.000 HD
ENDBRANCH   9  18
BRANCH  10  20
ATOM     20  O   UNL     1      -8.960  -1.075  -6.218  0.00  0.00    +0.000 OA
ATOM     21  H   UNL     1      -8.735  -0.312  -6.808  0.00  0.00    +0.000 HD
ENDBRANCH  10  20
ENDBRANCH   5   7
BRANCH   1  22
ATOM     22  C   UNL     1      -3.333  -2.266  -2.830  0.00  0.00    +0.000 C 
ATOM     23  O   UNL     1      -2.621  -1.932  -3.752  0.00  0.00    +0.000 OA
BRANCH  22  24
ATOM     24  C   UNL     1      -2.951  -1.910  -1.416  0.00  0.00    +0.000 C 
BRANCH  24  25
ATOM     25  C   UNL     1      -1.633  -1.135  -1.423  0.00  0.00    +0.000 C 
BRANCH  25  26
ATOM     26  C   UNL     1      -1.245  -0.773   0.012  0.00  0.00    +0.000 C 
BRANCH  26  28
ATOM     27  C   UNL     1       1.292  -0.753  -0.009  0.00  0.00    +0.000 C 
ATOM     28  N   UNL     1       0.018  -0.031   0.004  0.00  0.00    +0.000 N 
BRANCH  28  29
ATOM     29  N   UNL     1       0.007   1.259   0.010  0.00  0.00    +0.000 NA
ATOM     30  O   UNL     1       1.057   1.877   0.004  0.00  0.00    +0.000 OA
ENDBRANCH  28  29
ENDBRANCH  26  28
ENDBRANCH  25  26
ENDBRANCH  24  25
ENDBRANCH  22  24
ENDBRANCH   1  22
TORSDOF 11
ENDMDL
MODEL     1043
REMARK  Name = ZINC29918169
REMARK  12 active torsions:
REMARK  status: ('A' for Active; 'I' for Inactive)
REMARK    1  A    between atoms: C_1  and  C_2
REMARK    2  A    between atoms: C_2  and  C_3
REMARK    3  A    between atoms: C_2  and  C_4
REMARK    4  A    between atoms: C_4  and  N_5
REMARK    5  A    between atoms: C_6  and  N_25
REMARK    6  A    between atoms: C_7  and  C_13
REMARK    7  A    between atoms: C_13  and  C_15
REMARK    8  A    between atoms: C_15  and  S_16
REMARK    9  A    between atoms: S_16  and  C_17
REMARK   10  A    between atoms: C_20  and  C_22
REMARK   11  A    between atoms: C_22  and  S_23
REMARK   12  A    between atoms: S_23  and  C_24
REMARK                            x       y       z     vdW  Elec       q    Type
REMARK                         _______ _______ _______ _____ _____    ______ ____
ROOT
ATOM      1  N   UNL     1       2.362   1.420   0.005  0.00  0.00    +0.000 N 
ATOM      2  C   UNL     1       1.212   2.117   0.241  0.00  0.00    +0.000 A 
ATOM      3  C   UNL     1      -0.015   1.430   0.228  0.00  0.00    +0.000 A 
ATOM      4  C   UNL     1       0.010  -0.013  -0.043  0.00  0.00    +0.000 A 
ATOM      5  O   UNL     1      -1.022  -0.659  -0.066  0.00  0.00    +0.000 OA
ATOM      6  N   UNL     1       1.200  -0.609  -0.264  0.00  0.00    +0.000 N 
ATOM      7  C   UNL     1       2.340   0.100  -0.239  0.00  0.00    +0.000 A 
ATOM      8  O   UNL     1       3.392  -0.475  -0.444  0.00  0.00    +0.000 OA
ATOM      9  H   UNL     1       1.234  -1.620  -0.455  0.00  0.00    +0.000 HD
ENDROOT
BRANCH   2  10
ATOM     10  N   UNL     1       1.252   3.455   0.485  0.00  0.00    +0.000 N 
ATOM     11  H   UNL     1       2.158   3.944   0.491  0.00  0.00    +0.000 HD
ATOM     12  H   UNL     1       0.382   3.977   0.663  0.00  0.00    +0.000 HD
ENDBRANCH   2  10
BRANCH   3  13
ATOM     13  C   UNL     1      -1.231   2.107   0.461  0.00  0.00    +0.000 C 
ATOM     14  O   UNL     1      -1.242   3.316   0.570  0.00  0.00    +0.000 OA
BRANCH  13  15
ATOM     15  C   UNL     1      -2.517   1.328   0.574  0.00  0.00    +0.000 C 
BRANCH  15  16
ATOM     16  S   UNL     1      -3.889   2.470   0.870  0.00  0.00    +0.000 S 
BRANCH  16  17
ATOM     17  C   UNL     1      -5.226   1.325   0.958  0.00  0.00    +0.000 A 
ATOM     18  N   UNL     1      -5.145   0.023   0.825  0.00  0.00    +0.000 NA
ATOM     19  N   UNL     1      -6.317  -0.491   0.952  0.00  0.00    +0.000 NA
ATOM     20  C   UNL     1      -7.187   0.454   1.159  0.00  0.00    +0.000 A 
ATOM     21  O   UNL     1      -6.521   1.625   1.169  0.00  0.00    +0.000 OA
BRANCH  20  22
ATOM     22  C   UNL     1      -8.671   0.271   1.354  0.00  0.00    +0.000 C 
BRANCH  22  23
ATOM     23  S   UNL     1      -9.026   0.047   3.119  0.00  0.00    +0.000 S 
ATOM     24  C   UNL     1     -10.827  -0.157   3.182  0.00  0.00    +0.000 C 
ENDBRANCH  22  23
ENDBRANCH  20  22
ENDBRANCH  16  17
ENDBRANCH  15  16
ENDBRANCH  13  15
ENDBRANCH   3  13
BRANCH   1  25
ATOM     25  C   UNL     1       3.645   2.127   0.016  0.00  0.00    +0.000 C 
BRANCH  25  27
ATOM     26  C   UNL     1       5.235   3.479  -1.357  0.00  0.00    +0.000 C 
ATOM     27  C   UNL     1       3.959   2.636  -1.392  0.00  0.00    +0.000 C 
ATOM     28  C   UNL     1       4.162   1.445  -2.331  0.00  0.00    +0.000 C 
ENDBRANCH  25  27
ENDBRANCH   1  25
TORSDOF 9
ENDMDL
MODEL     1044
REMARK  Name = ZINC23367841
REMARK  8 active torsions:
REMARK  status: ('A' for Active; 'I' for Inactive)
REMARK    1  A    between atoms: C_4  and  N_7
REMARK    2  A    between atoms: C_11  and  C_13
REMARK    3  A    between atoms: C_13  and  S_14
REMARK    4  A    between atoms: S_14  and  C_15
REMARK    5  A    between atoms: C_18  and  C_23
REMARK    6  A    between atoms: N_19  and  C_20
REMARK    7  A    between atoms: C_23  and  C_24
REMARK    8  A    between atoms: C_24  and  C_25
REMARK                            x       y       z     vdW  Elec       q    Type
REMARK                         _______ _______ _______ _____ _____    ______ ____
ROOT
ATOM      1  S   UNL     1       1.720  -1.123   1.138  0.00  0.00    +0.000 S 
ENDROOT
BRANCH   1   2
ATOM      2  C   UNL     1       1.145   0.508   0.799  0.00  0.00    +0.000 A 
ATOM      3  N   UNL     1      -0.104   0.877   0.637  0.00  0.00    +0.000 NA
ATOM      4  N   UNL     1      -0.160   2.140   0.405  0.00  0.00    +0.000 NA
ATOM      5  C   UNL     1       1.040   2.648   0.404  0.00  0.00    +0.000 A 
ATOM      6  N   UNL     1       1.914   1.627   0.655  0.00  0.00    +0.000 N 
BRANCH   6   7
ATOM      7  C   UNL     1       3.374   1.715   0.750  0.00  0.00    +0.000 C 
ATOM      8  C   UNL     1       4.169   0.412   0.641  0.00  0.00    +0.000 C 
ATOM      9  C   UNL     1       4.038   1.119   1.993  0.00  0.00    +0.000 C 
ENDBRANCH   6   7
BRANCH   5  10
ATOM     10  C   UNL     1       1.398   4.093   0.170  0.00  0.00    +0.000 C 
BRANCH  10  11
ATOM     11  C   UNL     1       1.412   4.838   1.506  0.00  0.00    +0.000 C 
BRANCH  11  12
ATOM     12  C   UNL     1       1.770   6.283   1.272  0.00  0.00    +0.000 C 
ATOM     13  O   UNL     1       1.992   6.678   0.147  0.00  0.00    +0.000 OA
ATOM     14  N   UNL     1       1.843   7.136   2.312  0.00  0.00    +0.000 N 
ATOM     15  H   UNL     1       1.655   6.801   3.268  0.00  0.00    +0.000 HD
ATOM     16  H   UNL     1       2.088   8.124   2.152  0.00  0.00    +0.000 HD
ENDBRANCH  11  12
ENDBRANCH  10  11
ENDBRANCH   5  10
ENDBRANCH   1   2
BRANCH   1  17
ATOM     17  C   UNL     1       0.143  -2.010   1.178  0.00  0.00    +0.000 C 
BRANCH  17  22
ATOM     18  N   UNL     1      -1.450  -6.493   1.868  0.00  0.00    +0.000 N 
ATOM     19  C   UNL     1      -0.415  -5.633   1.791  0.00  0.00    +0.000 C 
ATOM     20  O   UNL     1       0.721  -6.034   1.950  0.00  0.00    +0.000 OA
ATOM     21  N   UNL     1      -0.640  -4.329   1.538  0.00  0.00    +0.000 N 
ATOM     22  C   UNL     1       0.395  -3.469   1.461  0.00  0.00    +0.000 C 
ATOM     23  O   UNL     1       1.528  -3.869   1.620  0.00  0.00    +0.000 OA
ATOM     24  H   UNL     1      -2.400  -6.179   1.621  0.00  0.00    +0.000 HD
ATOM     25  H   UNL     1      -1.603  -3.989   1.403  0.00  0.00    +0.000 HD
BRANCH  18  29
ATOM     26  C   UNL     1      -0.808 -10.420   3.101  0.00  0.00    +0.000 A 
ATOM     27  C   UNL     1       0.024  -9.412   3.550  0.00  0.00    +0.000 A 
ATOM     28  C   UNL     1      -0.186  -8.109   3.143  0.00  0.00    +0.000 A 
ATOM     29  C   UNL     1      -1.235  -7.812   2.282  0.00  0.00    +0.000 A 
ATOM     30  C   UNL     1      -2.073  -8.827   1.838  0.00  0.00    +0.000 A 
ATOM     31  C   UNL     1      -1.854 -10.129   2.244  0.00  0.00    +0.000 A 
ENDBRANCH  18  29
ENDBRANCH  17  22
ENDBRANCH   1  17
TORSDOF 8
ENDMDL
MODEL     1045
REMARK  Name = ZINC14623578
REMARK  13 active torsions:
REMARK  status: ('A' for Active; 'I' for Inactive)
REMARK    1  A    between atoms: C_1  and  C_2
REMARK    2  A    between atoms: C_2  and  C_3
REMARK    3  A    between atoms: C_3  and  C_4
REMARK    4  A    between atoms: C_4  and  N_5
REMARK    5  A    between atoms: C_6  and  N_28
REMARK    6  A    between atoms: C_7  and  N_13
REMARK    7  A    between atoms: N_13  and  C_14
REMARK    8  A    between atoms: C_14  and  C_15
REMARK    9  A    between atoms: C_15  and  C_16
REMARK   10  A    between atoms: C_16  and  C_17
REMARK   11  A    between atoms: C_16  and  C_18
REMARK   12  A    between atoms: C_19  and  C_21
REMARK   13  A    between atoms: C_24  and  C_27
REMARK                            x       y       z     vdW  Elec       q    Type
REMARK                         _______ _______ _______ _____ _____    ______ ____
ROOT
ATOM      1  N   UNL     1      -0.904   2.166  -0.620  0.00  0.00    +0.000 N 
ATOM      2  C   UNL     1       0.251   2.873  -0.861  0.00  0.00    +0.000 A 
ATOM      3  C   UNL     1       1.129   3.104   0.179  0.00  0.00    +0.000 A 
ATOM      4  C   UNL     1       0.813   2.607   1.458  0.00  0.00    +0.000 A 
ATOM      5  O   UNL     1       1.570   2.797   2.395  0.00  0.00    +0.000 OA
ATOM      6  N   UNL     1      -0.332   1.920   1.640  0.00  0.00    +0.000 N 
ATOM      7  C   UNL     1      -1.173   1.700   0.614  0.00  0.00    +0.000 A 
ATOM      8  O   UNL     1      -2.197   1.073   0.805  0.00  0.00    +0.000 OA
ATOM      9  H   UNL     1      -0.566   1.560   2.576  0.00  0.00    +0.000 HD
ENDROOT
BRANCH   2  10
ATOM     10  N   UNL     1       0.527   3.344  -2.122  0.00  0.00    +0.000 N 
ATOM     11  H   UNL     1      -0.135   3.166  -2.890  0.00  0.00    +0.000 HD
ATOM     12  H   UNL     1       1.393   3.873  -2.299  0.00  0.00    +0.000 HD
ENDBRANCH   2  10
BRANCH   3  13
ATOM     13  N   UNL     1       2.320   3.826  -0.035  0.00  0.00    +0.000 N 
ATOM     14  C   UNL     1       2.268   5.141  -0.326  0.00  0.00    +0.000 C 
ATOM     15  O   UNL     1       3.289   5.744  -0.596  0.00  0.00    +0.000 OA
BRANCH  14  16
ATOM     16  C   UNL     1       0.969   5.851  -0.317  0.00  0.00    +0.000 A 
ATOM     17  C   UNL     1       0.895   7.180  -0.732  0.00  0.00    +0.000 A 
ATOM     18  N   UNL     1      -0.267   7.807  -0.727  0.00  0.00    +0.000 NA
ATOM     19  C   UNL     1      -1.356   7.180  -0.318  0.00  0.00    +0.000 A 
ATOM     20  C   UNL     1      -1.286   5.860   0.101  0.00  0.00    +0.000 A 
ATOM     21  N   UNL     1      -0.131   5.224   0.093  0.00  0.00    +0.000 NA
ATOM     22  C   UNL     1      -2.679   7.901  -0.308  0.00  0.00    +0.000 C 
ENDBRANCH  14  16
BRANCH  13  23
ATOM     23  C   UNL     1       3.615   3.146   0.058  0.00  0.00    +0.000 C 
BRANCH  23  24
ATOM     24  C   UNL     1       4.064   2.712  -1.339  0.00  0.00    +0.000 C 
BRANCH  24  25
ATOM     25  C   UNL     1       5.416   2.002  -1.242  0.00  0.00    +0.000 C 
ATOM     26  C   UNL     1       5.806   1.458  -2.618  0.00  0.00    +0.000 C 
ATOM     27  C   UNL     1       6.479   2.994  -0.765  0.00  0.00    +0.000 C 
ENDBRANCH  24  25
ENDBRANCH  23  24
ENDBRANCH  13  23
ENDBRANCH   3  13
BRANCH   1  28
ATOM     28  C   UNL     1      -1.845   1.913  -1.714  0.00  0.00    +0.000 C 
BRANCH  28  29
ATOM     29  C   UNL     1      -1.484   0.595  -2.403  0.00  0.00    +0.000 C 
BRANCH  29  31
ATOM     30  C   UNL     1      -2.105  -0.987  -4.234  0.00  0.00    +0.000 C 
ATOM     31  C   UNL     1      -2.466   0.331  -3.546  0.00  0.00    +0.000 C 
ENDBRANCH  29  31
ENDBRANCH  28  29
ENDBRANCH   1  28
TORSDOF 9
ENDMDL
MODEL     1046
REMARK  Name = ZINC27559693
REMARK  10 active torsions:
REMARK  status: ('A' for Active; 'I' for Inactive)
REMARK    1  A    between atoms: C_1  and  C_2
REMARK    2  A    between atoms: C_5  and  N_26
REMARK    3  A    between atoms: C_6  and  N_9
REMARK    4  A    between atoms: C_7  and  C_8
REMARK    5  A    between atoms: C_10  and  C_12
REMARK    6  A    between atoms: C_12  and  N_13
REMARK    7  A    between atoms: N_16  and  C_19
REMARK    8  A    between atoms: C_19  and  C_20
REMARK    9  A    between atoms: N_22  and  C_23
REMARK   10  A    between atoms: C_23  and  C_24
REMARK                            x       y       z     vdW  Elec       q    Type
REMARK                         _______ _______ _______ _____ _____    ______ ____
ROOT
ATOM      1  N   UNL     1       1.413   1.931   2.500  0.00  0.00    +0.000 N 
ATOM      2  C   UNL     1       2.059   2.426   3.574  0.00  0.00    +0.000 C 
ATOM      3  O   UNL     1       1.429   2.827   4.529  0.00  0.00    +0.000 OA
ATOM      4  H   UNL     1       1.947   1.516   1.723  0.00  0.00    +0.000 HD
ENDROOT
BRANCH   1  10
ATOM      5  C   UNL     1      -2.950   0.427   4.195  0.00  0.00    +0.000 C 
ATOM      6  C   UNL     1      -2.124   1.261   3.250  0.00  0.00    +0.000 A 
ATOM      7  C   UNL     1      -2.747   2.075   2.322  0.00  0.00    +0.000 A 
ATOM      8  C   UNL     1      -1.992   2.838   1.450  0.00  0.00    +0.000 A 
ATOM      9  C   UNL     1      -0.613   2.792   1.506  0.00  0.00    +0.000 A 
ATOM     10  C   UNL     1       0.016   1.980   2.440  0.00  0.00    +0.000 A 
ATOM     11  C   UNL     1      -0.745   1.215   3.315  0.00  0.00    +0.000 A 
ATOM     12  C   UNL     1      -0.067   0.332   4.330  0.00  0.00    +0.000 C 
BRANCH   9  13
ATOM     13  N   UNL     1       0.194   3.609   0.572  0.00  0.00    +0.000 N 
ATOM     14  O   UNL     1      -0.358   4.311  -0.256  0.00  0.00    +0.000 OA
ATOM     15  O   UNL     1       1.411   3.578   0.631  0.00  0.00    +0.000 OA
ENDBRANCH   9  13
ENDBRANCH   1  10
BRANCH   2  16
ATOM     16  C   UNL     1       3.565   2.482   3.587  0.00  0.00    +0.000 C 
BRANCH  16  17
ATOM     17  N   UNL     1       4.023   3.059   4.858  0.00  0.00    +0.000 NA
ATOM     18  C   UNL     1       3.623   4.468   4.972  0.00  0.00    +0.000 C 
ATOM     19  C   UNL     1       4.047   5.008   6.340  0.00  0.00    +0.000 C 
ATOM     20  N   UNL     1       5.502   4.862   6.491  0.00  0.00    +0.000 NA
ATOM     21  C   UNL     1       5.902   3.453   6.378  0.00  0.00    +0.000 C 
ATOM     22  C   UNL     1       5.477   2.913   5.010  0.00  0.00    +0.000 C 
BRANCH  20  23
ATOM     23  C   UNL     1       5.959   5.438   7.763  0.00  0.00    +0.000 C 
BRANCH  23  24
ATOM     24  C   UNL     1       5.751   6.931   7.741  0.00  0.00    +0.000 C 
ATOM     25  O   UNL     1       5.270   7.462   6.763  0.00  0.00    +0.000 OA
ATOM     26  N   UNL     1       6.101   7.675   8.809  0.00  0.00    +0.000 N 
ATOM     27  H   UNL     1       6.510   7.224   9.640  0.00  0.00    +0.000 HD
BRANCH  26  28
ATOM     28  C   UNL     1       5.899   9.126   8.788  0.00  0.00    +0.000 C 
BRANCH  28  29
ATOM     29  C   UNL     1       6.368   9.717  10.092  0.00  0.00    +0.000 C 
ATOM     30  C   UNL     1       7.256  10.681  10.093  0.00  0.00    +0.000 C 
ENDBRANCH  28  29
ENDBRANCH  26  28
ENDBRANCH  23  24
ENDBRANCH  20  23
ENDBRANCH  16  17
ENDBRANCH   2  16
TORSDOF 8
ENDMDL
MODEL     1047
REMARK  Name = ZINC26376724
REMARK  11 active torsions:
REMARK  status: ('A' for Active; 'I' for Inactive)
REMARK    1  A    between atoms: C_1  and  N_2
REMARK    2  A    between atoms: N_2  and  S_3
REMARK    3  A    between atoms: S_3  and  C_6
REMARK    4  A    between atoms: C_8  and  C_12
REMARK    5  A    between atoms: N_9  and  C_11
REMARK    6  A    between atoms: N_14  and  C_15
REMARK    7  A    between atoms: C_15  and  C_16
REMARK    8  A    between atoms: C_16  and  N_17
REMARK    9  A    between atoms: C_18  and  C_20
REMARK   10  A    between atoms: C_24  and  O_26
REMARK   11  A    between atoms: O_26  and  C_27
REMARK                            x       y       z     vdW  Elec       q    Type
REMARK                         _______ _______ _______ _____ _____    ______ ____
ROOT
ATOM      1  C   UNL     1       4.852   0.841  -0.475  0.00  0.00    +0.000 C 
ATOM      2  O   UNL     1       4.857  -0.376  -0.455  0.00  0.00    +0.000 OA
ATOM      3  N   UNL     1       3.689   1.509  -0.609  0.00  0.00    +0.000 N 
ATOM      4  H   UNL     1       3.675   2.537  -0.546  0.00  0.00    +0.000 HD
ENDROOT
BRANCH   1   7
ATOM      5  C   UNL     1       7.617   3.223  -0.171  0.00  0.00    +0.000 A 
ATOM      6  C   UNL     1       6.250   2.952  -0.285  0.00  0.00    +0.000 A 
ATOM      7  C   UNL     1       6.112   1.581  -0.352  0.00  0.00    +0.000 A 
ATOM      8  N   UNL     1       7.374   1.035  -0.289  0.00  0.00    +0.000 N 
ATOM      9  C   UNL     1       8.277   2.040  -0.179  0.00  0.00    +0.000 A 
ATOM     10  C   UNL     1       7.689  -0.395  -0.334  0.00  0.00    +0.000 C 
BRANCH   5  11
ATOM     11  S   UNL     1       8.351   4.819  -0.045  0.00  0.00    +0.000 S 
ATOM     12  O   UNL     1       7.353   5.685   0.478  0.00  0.00    +0.000 OA
ATOM     13  O   UNL     1       9.610   4.639   0.588  0.00  0.00    +0.000 OA
BRANCH  11  15
ATOM     14  C   UNL     1       7.560   5.591  -2.514  0.00  0.00    +0.000 C 
ATOM     15  N   UNL     1       8.665   5.336  -1.587  0.00  0.00    +0.000 NA
ATOM     16  H   UNL     1       9.638   5.479  -1.894  0.00  0.00    +0.000 HD
ENDBRANCH  11  15
ENDBRANCH   5  11
ENDBRANCH   1   7
BRANCH   3  17
ATOM     17  C   UNL     1       2.445   0.772  -0.845  0.00  0.00    +0.000 C 
BRANCH  17  18
ATOM     18  C   UNL     1       1.281   1.759  -0.959  0.00  0.00    +0.000 C 
BRANCH  18  19
ATOM     19  N   UNL     1       0.037   1.022  -1.194  0.00  0.00    +0.000 N 
ATOM     20  C   UNL     1      -1.125   1.690  -1.334  0.00  0.00    +0.000 C 
ATOM     21  O   UNL     1      -1.142   2.903  -1.260  0.00  0.00    +0.000 OA
ATOM     22  H   UNL     1       0.051  -0.006  -1.253  0.00  0.00    +0.000 HD
BRANCH  20  23
ATOM     23  C   UNL     1      -2.380   0.947  -1.578  0.00  0.00    +0.000 A 
ATOM     24  C   UNL     1      -2.363  -0.446  -1.669  0.00  0.00    +0.000 A 
ATOM     25  C   UNL     1      -3.536  -1.136  -1.892  0.00  0.00    +0.000 A 
ATOM     26  C   UNL     1      -4.729  -0.452  -2.036  0.00  0.00    +0.000 A 
ATOM     27  C   UNL     1      -4.756   0.933  -1.952  0.00  0.00    +0.000 A 
ATOM     28  C   UNL     1      -3.584   1.636  -1.723  0.00  0.00    +0.000 A 
BRANCH  27  29
ATOM     29  O   UNL     1      -5.931   1.600  -2.094  0.00  0.00    +0.000 OA
ATOM     30  C   UNL     1      -7.100   0.812  -2.328  0.00  0.00    +0.000 C 
ENDBRANCH  27  29
ENDBRANCH  20  23
ENDBRANCH  18  19
ENDBRANCH  17  18
ENDBRANCH   3  17
TORSDOF 8
ENDMDL
MODEL     1048
REMARK  Name = ZINC26997465
REMARK  9 active torsions:
REMARK  status: ('A' for Active; 'I' for Inactive)
REMARK    1  A    between atoms: C_1  and  C_2
REMARK    2  A    between atoms: C_2  and  C_3
REMARK    3  A    between atoms: C_2  and  O_12
REMARK    4  A    between atoms: N_8  and  C_9
REMARK    5  A    between atoms: C_9  and  C_10
REMARK    6  A    between atoms: O_12  and  C_13
REMARK    7  A    between atoms: C_13  and  C_15
REMARK    8  A    between atoms: C_19  and  C_21
REMARK    9  A    between atoms: C_21  and  N_22
REMARK                            x       y       z     vdW  Elec       q    Type
REMARK                         _______ _______ _______ _____ _____    ______ ____
ROOT
ATOM      1  C   UNL     1       1.174   2.076   0.002  0.00  0.00    +0.000 C 
ATOM      2  O   UNL     1       2.202   1.428  -0.011  0.00  0.00    +0.000 OA
ENDROOT
BRANCH   1   3
ATOM      3  C   UNL     1       1.232   3.552   0.009  0.00  0.00    +0.000 A 
ATOM      4  C   UNL     1       0.052   4.299   0.019  0.00  0.00    +0.000 A 
ATOM      5  C   UNL     1       0.113   5.677   0.031  0.00  0.00    +0.000 A 
ATOM      6  C   UNL     1       1.339   6.319   0.023  0.00  0.00    +0.000 A 
ATOM      7  C   UNL     1       2.511   5.585   0.008  0.00  0.00    +0.000 A 
ATOM      8  C   UNL     1       2.465   4.206   0.001  0.00  0.00    +0.000 A 
BRANCH   7   9
ATOM      9  C   UNL     1       3.842   6.292  -0.001  0.00  0.00    +0.000 C 
BRANCH   9  10
ATOM     10  N   UNL     1       4.260   6.528  -1.385  0.00  0.00    +0.000 N 
ATOM     11  C   UNL     1       5.004   5.668  -2.109  0.00  0.00    +0.000 C 
ATOM     12  O   UNL     1       5.437   4.594  -1.750  0.00  0.00    +0.000 OA
ATOM     13  C   UNL     1       5.185   6.323  -3.464  0.00  0.00    +0.000 C 
ATOM     14  N   UNL     1       4.460   7.598  -3.332  0.00  0.00    +0.000 NA
ATOM     15  C   UNL     1       3.955   7.627  -2.086  0.00  0.00    +0.000 C 
ATOM     16  O   UNL     1       3.296   8.548  -1.645  0.00  0.00    +0.000 OA
ENDBRANCH   9  10
ENDBRANCH   7   9
ENDBRANCH   1   3
BRANCH   1  17
ATOM     17  O   UNL     1      -0.018   1.448   0.010  0.00  0.00    +0.000 OA
BRANCH  17  19
ATOM     18  C   UNL     1      -0.005  -0.506  -1.443  0.00  0.00    +0.000 C 
ATOM     19  C   UNL     1       0.002  -0.004   0.002  0.00  0.00    +0.000 C 
BRANCH  19  20
ATOM     20  C   UNL     1      -1.215  -0.527   0.721  0.00  0.00    +0.000 C 
ATOM     21  O   UNL     1      -2.064   0.243   1.114  0.00  0.00    +0.000 OA
ATOM     22  N   UNL     1      -1.358  -1.851   0.927  0.00  0.00    +0.000 N 
ATOM     23  C   UNL     1      -2.446  -2.319   1.571  0.00  0.00    +0.000 C 
ATOM     24  O   UNL     1      -3.298  -1.546   1.965  0.00  0.00    +0.000 OA
ATOM     25  N   UNL     1      -2.590  -3.643   1.777  0.00  0.00    +0.000 N 
ATOM     26  H   UNL     1      -0.637  -2.506   0.593  0.00  0.00    +0.000 HD
ATOM     27  H   UNL     1      -1.869  -4.297   1.443  0.00  0.00    +0.000 HD
BRANCH  25  28
ATOM     28  C   UNL     1      -3.773  -4.151   2.476  0.00  0.00    +0.000 C 
BRANCH  28  29
ATOM     29  C   UNL     1      -3.691  -5.652   2.576  0.00  0.00    +0.000 C 
ATOM     30  C   UNL     1      -3.779  -6.237   3.744  0.00  0.00    +0.000 C 
ENDBRANCH  28  29
ENDBRANCH  25  28
ENDBRANCH  19  20
ENDBRANCH  17  19
ENDBRANCH   1  17
TORSDOF 8
ENDMDL
MODEL     1049
REMARK  Name = ZINC29912975
REMARK  12 active torsions:
REMARK  status: ('A' for Active; 'I' for Inactive)
REMARK    1  A    between atoms: C_1  and  C_2
REMARK    2  A    between atoms: C_2  and  C_3
REMARK    3  A    between atoms: C_2  and  N_6
REMARK    4  A    between atoms: C_3  and  O_4
REMARK    5  A    between atoms: O_4  and  C_5
REMARK    6  A    between atoms: C_10  and  C_12
REMARK    7  A    between atoms: C_12  and  S_13
REMARK    8  A    between atoms: S_13  and  C_14
REMARK    9  A    between atoms: C_17  and  S_20
REMARK   10  A    between atoms: S_20  and  N_23
REMARK   11  A    between atoms: N_23  and  C_24
REMARK   12  A    between atoms: N_23  and  C_25
REMARK                            x       y       z     vdW  Elec       q    Type
REMARK                         _______ _______ _______ _____ _____    ______ ____
ROOT
ATOM      1  C   UNL     1       4.014  -5.857   2.403  0.00  0.00    +0.000 C 
ENDROOT
BRANCH   1   6
ATOM      2  N   UNL     1       1.404  -2.533   0.112  0.00  0.00    +0.000 N 
ATOM      3  C   UNL     1       1.938  -3.770   0.134  0.00  0.00    +0.000 C 
ATOM      4  O   UNL     1       1.764  -4.524  -0.804  0.00  0.00    +0.000 OA
ATOM      5  N   UNL     1       2.666  -4.172   1.195  0.00  0.00    +0.000 N 
ATOM      6  C   UNL     1       3.201  -5.409   1.216  0.00  0.00    +0.000 C 
ATOM      7  O   UNL     1       3.027  -6.160   0.281  0.00  0.00    +0.000 OA
ATOM      8  H   UNL     1       1.551  -1.895   0.907  0.00  0.00    +0.000 HD
ATOM      9  H   UNL     1       2.814  -3.533   1.989  0.00  0.00    +0.000 HD
BRANCH   2  11
ATOM     10  C   UNL     1      -0.835  -2.560  -0.871  0.00  0.00    +0.000 C 
ATOM     11  C   UNL     1       0.613  -2.097  -1.041  0.00  0.00    +0.000 C 
BRANCH  11  12
ATOM     12  C   UNL     1       0.652  -0.570  -1.138  0.00  0.00    +0.000 C 
BRANCH  12  13
ATOM     13  O   UNL     1       0.002  -0.004   0.002  0.00  0.00    +0.000 OA
ATOM     14  C   UNL     1      -0.017   1.425   0.010  0.00  0.00    +0.000 C 
ENDBRANCH  12  13
ENDBRANCH  11  12
ENDBRANCH   2  11
ENDBRANCH   1   6
BRANCH   1  15
ATOM     15  S   UNL     1       4.591  -7.556   2.133  0.00  0.00    +0.000 S 
BRANCH  15  16
ATOM     16  C   UNL     1       5.513  -7.929   3.587  0.00  0.00    +0.000 A 
ATOM     17  C   UNL     1       6.108  -9.180   3.724  0.00  0.00    +0.000 A 
ATOM     18  C   UNL     1       6.833  -9.458   4.869  0.00  0.00    +0.000 A 
ATOM     19  C   UNL     1       6.931  -8.476   5.846  0.00  0.00    +0.000 A 
ATOM     20  C   UNL     1       6.311  -7.259   5.646  0.00  0.00    +0.000 A 
ATOM     21  N   UNL     1       5.630  -7.019   4.542  0.00  0.00    +0.000 NA
BRANCH  19  22
ATOM     22  S   UNL     1       7.837  -8.780   7.326  0.00  0.00    +0.000 S 
ATOM     23  O   UNL     1       8.776  -9.804   7.024  0.00  0.00    +0.000 OA
ATOM     24  O   UNL     1       8.230  -7.511   7.830  0.00  0.00    +0.000 OA
BRANCH  22  25
ATOM     25  N   UNL     1       6.778  -9.419   8.427  0.00  0.00    +0.000 NA
ATOM     26  C   UNL     1       6.587 -10.870   8.503  0.00  0.00    +0.000 C 
ATOM     27  C   UNL     1       6.031  -8.534   9.324  0.00  0.00    +0.000 C 
ENDBRANCH  22  25
ENDBRANCH  19  22
ENDBRANCH  15  16
ENDBRANCH   1  15
TORSDOF 8
ENDMDL
MODEL     1050
REMARK  Name = ZINC25674656
REMARK  8 active torsions:
REMARK  status: ('A' for Active; 'I' for Inactive)
REMARK    1  A    between atoms: C_3  and  N_25
REMARK    2  A    between atoms: C_6  and  C_7
REMARK    3  A    between atoms: C_7  and  C_8
REMARK    4  A    between atoms: C_8  and  O_10
REMARK    5  A    between atoms: O_10  and  C_11
REMARK    6  A    between atoms: C_11  and  C_12
REMARK    7  A    between atoms: N_14  and  C_15
REMARK    8  A    between atoms: C_17  and  N_22
REMARK                            x       y       z     vdW  Elec       q    Type
REMARK                         _______ _______ _______ _____ _____    ______ ____
ROOT
ATOM      1  C   UNL     1      -5.020   4.048   1.654  0.00  0.00    +0.000 C 
ATOM      2  O   UNL     1      -4.295   3.769   2.580  0.00  0.00    +0.000 OA
ENDROOT
BRANCH   1   3
ATOM      3  O   UNL     1      -6.149   4.740   1.871  0.00  0.00    +0.000 OA
BRANCH   3   4
ATOM      4  C   UNL     1      -6.436   5.120   3.243  0.00  0.00    +0.000 C 
BRANCH   4   5
ATOM      5  C   UNL     1      -7.733   5.885   3.292  0.00  0.00    +0.000 C 
ATOM      6  O   UNL     1      -8.355   6.089   2.271  0.00  0.00    +0.000 OA
ATOM      7  N   UNL     1      -8.203   6.342   4.470  0.00  0.00    +0.000 N 
ATOM      8  H   UNL     1      -7.634   6.244   5.323  0.00  0.00    +0.000 HD
BRANCH   7   9
ATOM      9  C   UNL     1      -9.463   6.949   4.533  0.00  0.00    +0.000 A 
ATOM     10  C   UNL     1     -10.428   6.649   3.582  0.00  0.00    +0.000 A 
ATOM     11  C   UNL     1     -11.673   7.246   3.651  0.00  0.00    +0.000 A 
ATOM     12  C   UNL     1     -11.954   8.150   4.658  0.00  0.00    +0.000 A 
ATOM     13  C   UNL     1     -10.993   8.457   5.605  0.00  0.00    +0.000 A 
ATOM     14  C   UNL     1      -9.748   7.859   5.546  0.00  0.00    +0.000 A 
ATOM     15  F   UNL     1      -8.809   8.158   6.470  0.00  0.00    +0.000 F 
BRANCH  11  16
ATOM     16  N   UNL     1     -12.704   6.922   2.640  0.00  0.00    +0.000 N 
ATOM     17  O   UNL     1     -13.800   7.451   2.696  0.00  0.00    +0.000 OA
ATOM     18  O   UNL     1     -12.457   6.125   1.752  0.00  0.00    +0.000 OA
ENDBRANCH  11  16
ENDBRANCH   7   9
ENDBRANCH   4   5
ENDBRANCH   3   4
ENDBRANCH   1   3
BRANCH   1  19
ATOM     19  C   UNL     1      -4.656   3.619   0.256  0.00  0.00    +0.000 C 
BRANCH  19  25
ATOM     20  C   UNL     1      -3.354   1.491   0.459  0.00  0.00    +0.000 A 
ATOM     21  C   UNL     1      -2.161   0.795   0.486  0.00  0.00    +0.000 A 
ATOM     22  C   UNL     1      -0.959   1.475   0.340  0.00  0.00    +0.000 A 
ATOM     23  C   UNL     1      -0.961   2.854   0.172  0.00  0.00    +0.000 A 
ATOM     24  C   UNL     1      -2.158   3.543   0.139  0.00  0.00    +0.000 A 
ATOM     25  C   UNL     1      -3.353   2.863   0.286  0.00  0.00    +0.000 A 
BRANCH  22  26
ATOM     26  N   UNL     1       0.251   0.774   0.368  0.00  0.00    +0.000 N 
ATOM     27  C   UNL     1       0.324  -0.466  -0.156  0.00  0.00    +0.000 C 
ATOM     28  O   UNL     1      -0.680  -1.007  -0.578  0.00  0.00    +0.000 OA
ATOM     29  N   UNL     1       1.508  -1.106  -0.211  0.00  0.00    +0.000 N 
ATOM     30  H   UNL     1       1.087   1.205   0.789  0.00  0.00    +0.000 HD
ATOM     31  H   UNL     1       2.358  -0.648   0.147  0.00  0.00    +0.000 HD
ATOM     32  H   UNL     1       1.564  -2.054  -0.611  0.00  0.00    +0.000 HD
ENDBRANCH  22  26
ENDBRANCH  19  25
ENDBRANCH   1  19
TORSDOF 8
ENDMDL
MODEL     1051
REMARK  Name = ZINC23179510
REMARK  10 active torsions:
REMARK  status: ('A' for Active; 'I' for Inactive)
REMARK    1  A    between atoms: C_1  and  C_2
REMARK    2  A    between atoms: C_2  and  C_3
REMARK    3  A    between atoms: C_2  and  N_4
REMARK    4  A    between atoms: N_4  and  C_5
REMARK    5  A    between atoms: N_4  and  C_17
REMARK    6  A    between atoms: C_5  and  C_6
REMARK    7  A    between atoms: C_6  and  N_7
REMARK    8  A    between atoms: C_8  and  C_10
REMARK    9  A    between atoms: C_17  and  C_18
REMARK   10  A    between atoms: C_17  and  C_19
REMARK                            x       y       z     vdW  Elec       q    Type
REMARK                         _______ _______ _______ _____ _____    ______ ____
ROOT
ATOM      1  N   UNL     1       1.226   1.931   0.492  0.00  0.00    +0.000 N 
ATOM      2  C   UNL     1       0.062   1.274   0.662  0.00  0.00    +0.000 C 
ATOM      3  O   UNL     1       0.052   0.059   0.719  0.00  0.00    +0.000 OA
ATOM      4  H   UNL     1       1.234   2.960   0.445  0.00  0.00    +0.000 HD
ENDROOT
BRANCH   2   5
ATOM      5  C   UNL     1      -1.205   2.029   0.774  0.00  0.00    +0.000 A 
ATOM      6  C   UNL     1      -2.427   1.335   0.947  0.00  0.00    +0.000 A 
ATOM      7  C   UNL     1      -3.574   2.065   1.047  0.00  0.00    +0.000 A 
ATOM      8  C   UNL     1      -3.472   3.472   0.972  0.00  0.00    +0.000 A 
ATOM      9  O   UNL     1      -4.472   4.166   1.056  0.00  0.00    +0.000 OA
ATOM     10  N   UNL     1      -2.264   4.042   0.806  0.00  0.00    +0.000 NA
ATOM     11  N   UNL     1      -1.192   3.341   0.719  0.00  0.00    +0.000 NA
ENDBRANCH   2   5
BRANCH   1  12
ATOM     12  C   UNL     1       2.480   1.183   0.375  0.00  0.00    +0.000 C 
BRANCH  12  13
ATOM     13  C   UNL     1       3.642   2.160   0.191  0.00  0.00    +0.000 C 
BRANCH  13  14
ATOM     14  N   UNL     1       4.911   1.422   0.213  0.00  0.00    +0.000 N 
ATOM     15  H   UNL     1       4.857   0.722   0.966  0.00  0.00    +0.000 HD
BRANCH  14  16
ATOM     16  C   UNL     1       6.037   2.318   0.511  0.00  0.00    +0.000 C 
ATOM     17  C   UNL     1       5.771   3.050   1.828  0.00  0.00    +0.000 C 
ATOM     18  C   UNL     1       7.323   1.498   0.632  0.00  0.00    +0.000 C 
ENDBRANCH  14  16
BRANCH  14  20
ATOM     19  C   UNL     1       4.463  -0.668  -0.982  0.00  0.00    +0.000 C 
ATOM     20  C   UNL     1       5.128   0.708  -1.052  0.00  0.00    +0.000 C 
ATOM     21  C   UNL     1       4.516   1.511  -2.202  0.00  0.00    +0.000 C 
ENDBRANCH  14  20
ENDBRANCH  13  14
ENDBRANCH  12  13
ENDBRANCH   1  12
TORSDOF 6
ENDMDL
MODEL     1052
REMARK  Name = ZINC12322535
REMARK  8 active torsions:
REMARK  status: ('A' for Active; 'I' for Inactive)
REMARK    1  A    between atoms: C_1  and  N_18
REMARK    2  A    between atoms: C_2  and  N_18
REMARK    3  A    between atoms: C_3  and  C_4
REMARK    4  A    between atoms: C_3  and  N_18
REMARK    5  A    between atoms: C_4  and  N_19
REMARK    6  A    between atoms: CA_5  and  C_6
REMARK    7  A    between atoms: CA_5  and  C_16
REMARK    8  A    between atoms: CA_5  and  N_19
REMARK                            x       y       z     vdW  Elec       q    Type
REMARK                         _______ _______ _______ _____ _____    ______ ____
ROOT
ATOM      1  CA  UNL     1      -2.545   1.335   0.020  0.00  0.00    +0.000 C 
ENDROOT
BRANCH   1   2
ATOM      2  C   UNL     1      -1.122   1.831   0.017  0.00  0.00    +0.000 A 
ATOM      3  C   UNL     1      -0.013   1.076   0.008  0.00  0.00    +0.000 A 
ATOM      4  N   UNL     1       1.098   1.877   0.002  0.00  0.00    +0.000 N 
ATOM      5  C   UNL     1       0.719   3.201   0.012  0.00  0.00    +0.000 A 
ATOM      6  C   UNL     1      -0.687   3.231   0.026  0.00  0.00    +0.000 A 
ATOM      7  C   UNL     1      -1.359   4.454   0.039  0.00  0.00    +0.000 A 
ATOM      8  C   UNL     1      -0.646   5.620   0.038  0.00  0.00    +0.000 A 
ATOM      9  C   UNL     1       0.744   5.597   0.025  0.00  0.00    +0.000 A 
ATOM     10  C   UNL     1       1.427   4.398   0.012  0.00  0.00    +0.000 A 
ATOM     11  F   UNL     1       1.432   6.760   0.024  0.00  0.00    +0.000 F 
ATOM     12  H   UNL     1       2.071   1.540  -0.009  0.00  0.00    +0.000 HD
ENDBRANCH   1   2
BRANCH   1  13
ATOM     13  N   UNL     1      -2.583  -0.022   0.599  0.00  0.00    +0.000 N 
ATOM     14  H1  UNL     1      -2.370  -0.712  -0.136  0.00  0.00    +0.000 HD
ATOM     15  H2  UNL     1      -1.875  -0.094   1.344  0.00  0.00    +0.000 HD
BRANCH  13  16
ATOM     16  C   UNL     1      -3.917  -0.301   1.163  0.00  0.00    +0.000 C 
BRANCH  16  17
ATOM     17  C   UNL     1      -3.926  -1.712   1.755  0.00  0.00    +0.000 C 
BRANCH  17  20
ATOM     18  C   UNL     1      -5.375  -3.416   2.682  0.00  0.00    +0.000 C 
ATOM     19  C   UNL     1      -5.530  -1.132   3.473  0.00  0.00    +0.000 C 
ATOM     20  N   UNL     1      -5.271  -1.992   2.299  0.00  0.00    +0.000 NA
ENDBRANCH  17  20
ENDBRANCH  16  17
ENDBRANCH  13  16
ENDBRANCH   1  13
BRANCH   1  21
ATOM     21  C   UNL     1      -3.066   1.293  -1.393  0.00  0.00    +0.000 C 
ATOM     22  O   UNL     1      -3.437   0.247  -1.870  0.00  0.00    +0.000 OA
ATOM     23  OXT UNL     1      -3.117   2.418  -2.123  0.00  0.00    +0.000 OA
ENDBRANCH   1  21
TORSDOF 6
ENDMDL
MODEL     1053
REMARK  Name = ZINC14709525
REMARK  9 active torsions:
REMARK  status: ('A' for Active; 'I' for Inactive)
REMARK    1  A    between atoms: C_1  and  C_2
REMARK    2  A    between atoms: C_2  and  C_3
REMARK    3  A    between atoms: C_5  and  S_8
REMARK    4  A    between atoms: S_8  and  C_9
REMARK    5  A    between atoms: C_9  and  C_10
REMARK    6  A    between atoms: C_10  and  C_12
REMARK    7  A    between atoms: C_12  and  C_13
REMARK    8  A    between atoms: C_12  and  C_16
REMARK    9  A    between atoms: C_13  and  C_14
REMARK                            x       y       z     vdW  Elec       q    Type
REMARK                         _______ _______ _______ _____ _____    ______ ____
ROOT
ATOM      1  C   UNL     1      -0.713   4.142   0.940  0.00  0.00    +0.000 C 
ENDROOT
BRANCH   1   2
ATOM      2  C   UNL     1      -1.750   5.214   0.730  0.00  0.00    +0.000 C 
ATOM      3  O   UNL     1      -2.919   4.981   0.962  0.00  0.00    +0.000 OA
BRANCH   2   4
ATOM      4  C   UNL     1      -1.363   6.493   0.262  0.00  0.00    +0.000 C 
BRANCH   4   5
ATOM      5  C   UNL     1      -2.325   7.436  -0.050  0.00  0.00    +0.000 C 
ATOM      6  C   UNL     1      -3.783   7.056  -0.045  0.00  0.00    +0.000 C 
ATOM      7  N   UNL     1      -1.958   8.697  -0.359  0.00  0.00    +0.000 NA
ATOM      8  H   UNL     1      -0.962   8.958  -0.363  0.00  0.00    +0.000 HD
ENDBRANCH   4   5
BRANCH   4   9
ATOM      9  C   UNL     1       0.026   6.809   0.111  0.00  0.00    +0.000 C 
ATOM     10  N   UNL     1       1.127   7.060  -0.008  0.00  0.00    +0.000 NA
ENDBRANCH   4   9
ENDBRANCH   2   4
ENDBRANCH   1   2
BRANCH   1  11
ATOM     11  S   UNL     1      -1.515   2.634   1.538  0.00  0.00    +0.000 S 
BRANCH  11  14
ATOM     12  C   UNL     1       1.191  -0.125   2.066  0.00  0.00    +0.000 A 
ATOM     13  N   UNL     1      -0.113   0.282   2.115  0.00  0.00    +0.000 N 
ATOM     14  C   UNL     1      -0.112   1.580   1.692  0.00  0.00    +0.000 A 
ATOM     15  N   UNL     1       1.133   1.893   1.417  0.00  0.00    +0.000 NA
ATOM     16  N   UNL     1       1.897   0.884   1.640  0.00  0.00    +0.000 NA
ATOM     17  H   UNL     1      -0.928  -0.275   2.409  0.00  0.00    +0.000 HD
BRANCH  12  19
ATOM     18  C   UNL     1       2.506  -2.068   1.262  0.00  0.00    +0.000 C 
ATOM     19  C   UNL     1       1.716  -1.488   2.437  0.00  0.00    +0.000 C 
ENDBRANCH  12  19
ENDBRANCH  11  14
ENDBRANCH   1  11
TORSDOF 7
ENDMDL
MODEL     1054
REMARK  Name = ZINC07738885
REMARK  8 active torsions:
REMARK  status: ('A' for Active; 'I' for Inactive)
REMARK    1  A    between atoms: C_1  and  O_2
REMARK    2  A    between atoms: O_2  and  C_3
REMARK    3  A    between atoms: C_6  and  C_11
REMARK    4  A    between atoms: C_7  and  O_9
REMARK    5  A    between atoms: O_9  and  C_10
REMARK    6  A    between atoms: C_11  and  C_13
REMARK    7  A    between atoms: C_13  and  N_14
REMARK    8  A    between atoms: C_18  and  C_20
REMARK                            x       y       z     vdW  Elec       q    Type
REMARK                         _______ _______ _______ _____ _____    ______ ____
ROOT
ATOM      1  C   UNL     1      -4.162   6.036   1.476  0.00  0.00    +0.000 C 
ATOM      2  O   UNL     1      -3.464   5.657   2.392  0.00  0.00    +0.000 OA
ENDROOT
BRANCH   1   6
ATOM      3  C   UNL     1      -7.828   8.004   2.271  0.00  0.00    +0.000 A 
ATOM      4  C   UNL     1      -7.419   7.789   0.957  0.00  0.00    +0.000 A 
ATOM      5  C   UNL     1      -6.239   7.155   0.696  0.00  0.00    +0.000 A 
ATOM      6  C   UNL     1      -5.429   6.717   1.753  0.00  0.00    +0.000 A 
ATOM      7  C   UNL     1      -5.842   6.928   3.081  0.00  0.00    +0.000 A 
ATOM      8  C   UNL     1      -7.040   7.577   3.329  0.00  0.00    +0.000 A 
BRANCH   3  10
ATOM      9  C   UNL     1      -9.768   9.050   1.383  0.00  0.00    +0.000 C 
ATOM     10  O   UNL     1      -9.004   8.636   2.517  0.00  0.00    +0.000 OA
ENDBRANCH   3  10
BRANCH   7  11
ATOM     11  O   UNL     1      -5.070   6.503   4.111  0.00  0.00    +0.000 OA
ATOM     12  C   UNL     1      -5.555   6.754   5.432  0.00  0.00    +0.000 C 
ENDBRANCH   7  11
ENDBRANCH   1   6
BRANCH   1  13
ATOM     13  C   UNL     1      -3.727   5.806   0.051  0.00  0.00    +0.000 C 
BRANCH  13  14
ATOM     14  N   UNL     1      -2.437   5.112   0.041  0.00  0.00    +0.000 N 
ATOM     15  C   UNL     1      -1.326   5.824   0.041  0.00  0.00    +0.000 A 
ATOM     16  C   UNL     1      -0.085   5.212   0.032  0.00  0.00    +0.000 A 
ATOM     17  C   UNL     1      -0.012   3.830   0.029  0.00  0.00    +0.000 A 
ATOM     18  C   UNL     1      -1.207   3.102   0.025  0.00  0.00    +0.000 A 
ATOM     19  C   UNL     1      -2.419   3.795   0.034  0.00  0.00    +0.000 A 
BRANCH  18  20
ATOM     20  C   UNL     1      -1.187   1.624   0.017  0.00  0.00    +0.000 C 
ATOM     21  O   UNL     1      -2.232   1.002   0.018  0.00  0.00    +0.000 OA
ATOM     22  N   UNL     1      -0.011   0.966   0.007  0.00  0.00    +0.000 N 
ATOM     23  H   UNL     1       0.874   1.493   0.006  0.00  0.00    +0.000 HD
ATOM     24  H   UNL     1       0.003  -0.064   0.002  0.00  0.00    +0.000 HD
ENDBRANCH  18  20
ENDBRANCH  13  14
ENDBRANCH   1  13
TORSDOF 6
ENDMDL
MODEL     1055
REMARK  Name = ZINC20203325
REMARK  8 active torsions:
REMARK  status: ('A' for Active; 'I' for Inactive)
REMARK    1  A    between atoms: C_1  and  S_2
REMARK    2  A    between atoms: S_2  and  N_5
REMARK    3  A    between atoms: N_5  and  C_6
REMARK    4  A    between atoms: C_6  and  C_7
REMARK    5  A    between atoms: C_7  and  N_8
REMARK    6  A    between atoms: N_8  and  C_9
REMARK    7  A    between atoms: C_9  and  C_10
REMARK    8  A    between atoms: C_15  and  O_16
REMARK                            x       y       z     vdW  Elec       q    Type
REMARK                         _______ _______ _______ _____ _____    ______ ____
ROOT
ATOM      1  N   UNL     1       2.982   3.999  -1.369  0.00  0.00    +0.000 N 
ATOM      2  H   UNL     1       2.293   4.457  -1.983  0.00  0.00    +0.000 HD
ATOM      3  H   UNL     1       3.143   3.039  -1.707  0.00  0.00    +0.000 HD
ENDROOT
BRANCH   1   4
ATOM      4  C   UNL     1       4.245   4.748  -1.415  0.00  0.00    +0.000 C 
BRANCH   4   5
ATOM      5  C   UNL     1       4.767   4.780  -2.853  0.00  0.00    +0.000 C 
BRANCH   5   6
ATOM      6  N   UNL     1       6.026   5.527  -2.899  0.00  0.00    +0.000 NA
ATOM      7  H   UNL     1       6.303   6.120  -2.104  0.00  0.00    +0.000 HD
BRANCH   6   9
ATOM      8  C   UNL     1       6.044   6.154  -5.579  0.00  0.00    +0.000 C 
ATOM      9  S   UNL     1       7.006   5.416  -4.229  0.00  0.00    +0.000 S 
ATOM     10  O   UNL     1       8.127   6.234  -3.923  0.00  0.00    +0.000 OA
ATOM     11  O   UNL     1       7.165   4.021  -4.447  0.00  0.00    +0.000 OA
ENDBRANCH   6   9
ENDBRANCH   5   6
ENDBRANCH   4   5
ENDBRANCH   1   4
BRANCH   1  12
ATOM     12  C   UNL     1       2.451   3.947  -0.000  0.00  0.00    +0.000 C 
BRANCH  12  13
ATOM     13  C   UNL     1       1.158   3.173   0.008  0.00  0.00    +0.000 A 
ATOM     14  C   UNL     1      -0.050   3.844   0.022  0.00  0.00    +0.000 A 
ATOM     15  C   UNL     1      -1.237   3.134   0.030  0.00  0.00    +0.000 A 
ATOM     16  C   UNL     1      -1.218   1.751   0.017  0.00  0.00    +0.000 A 
ATOM     17  C   UNL     1      -0.013   1.076   0.008  0.00  0.00    +0.000 A 
ATOM     18  C   UNL     1       1.179   1.786   0.000  0.00  0.00    +0.000 A 
ATOM     19 CL   UNL     1      -2.753   3.980   0.048  0.00  0.00    +0.000 Cl
BRANCH  18  20
ATOM     20  O   UNL     1       2.366   1.124  -0.015  0.00  0.00    +0.000 OA
ATOM     21  H   UNL     1       2.855   1.459   0.779  0.00  0.00    +0.000 HD
ENDBRANCH  18  20
ENDBRANCH  12  13
ENDBRANCH   1  12
TORSDOF 7
ENDMDL
MODEL     1056
REMARK  Name = ZINC29484918
REMARK  7 active torsions:
REMARK  status: ('A' for Active; 'I' for Inactive)
REMARK    1  A    between atoms: C_1  and  O_2
REMARK    2  A    between atoms: O_2  and  C_3
REMARK    3  A    between atoms: C_3  and  C_4
REMARK    4  A    between atoms: C_4  and  N_5
REMARK    5  A    between atoms: C_6  and  S_8
REMARK    6  A    between atoms: S_8  and  C_9
REMARK    7  A    between atoms: C_9  and  C_10
REMARK                            x       y       z     vdW  Elec       q    Type
REMARK                         _______ _______ _______ _____ _____    ______ ____
ROOT
ATOM      1  C   UNL     1       0.069  -4.200  -0.117  0.00  0.00    +0.000 C 
ENDROOT
BRANCH   1   2
ATOM      2  C   UNL     1      -0.029  -2.697  -0.174  0.00  0.00    +0.000 A 
ATOM      3  C   UNL     1      -1.262  -2.091  -0.317  0.00  0.00    +0.000 A 
ATOM      4  C   UNL     1      -1.328  -0.694  -0.367  0.00  0.00    +0.000 A 
ATOM      5  O   UNL     1      -2.403  -0.128  -0.493  0.00  0.00    +0.000 OA
ATOM      6  N   UNL     1      -0.185   0.018  -0.274  0.00  0.00    +0.000 N 
ATOM      7  C   UNL     1      -0.232   1.378  -0.321  0.00  0.00    +0.000 A 
ATOM      8  C   UNL     1       0.899   2.113  -0.230  0.00  0.00    +0.000 A 
ATOM      9  C   UNL     1       2.141   1.479  -0.086  0.00  0.00    +0.000 A 
ATOM     10  C   UNL     1       2.199   0.118  -0.036  0.00  0.00    +0.000 A 
ATOM     11  C   UNL     1       1.011  -0.629  -0.133  0.00  0.00    +0.000 A 
ATOM     12  N   UNL     1       1.066  -1.959  -0.086  0.00  0.00    +0.000 NA
ENDBRANCH   1   2
BRANCH   1  13
ATOM     13  S   UNL     1       0.711  -4.822  -1.691  0.00  0.00    +0.000 S 
BRANCH  13  15
ATOM     14  N   UNL     1       0.320  -6.993  -0.195  0.00  0.00    +0.000 N 
ATOM     15  C   UNL     1       0.722  -6.552  -1.354  0.00  0.00    +0.000 C 
ATOM     16  N   UNL     1       1.155  -7.436  -2.315  0.00  0.00    +0.000 N 
ATOM     17  H   UNL     1      -0.059  -6.337   0.503  0.00  0.00    +0.000 HD
ATOM     18  H   UNL     1       1.161  -8.447  -2.118  0.00  0.00    +0.000 HD
ATOM     19  H   UNL     1       1.472  -7.088  -3.231  0.00  0.00    +0.000 HD
BRANCH  14  20
ATOM     20  C   UNL     1       0.407  -8.422   0.115  0.00  0.00    +0.000 C 
BRANCH  20  21
ATOM     21  C   UNL     1       1.411  -8.638   1.250  0.00  0.00    +0.000 C 
BRANCH  21  23
ATOM     22  C   UNL     1       1.790  -8.164   3.568  0.00  0.00    +0.000 C 
ATOM     23  O   UNL     1       0.922  -8.021   2.442  0.00  0.00    +0.000 OA
ENDBRANCH  21  23
ENDBRANCH  20  21
ENDBRANCH  14  20
ENDBRANCH  13  15
ENDBRANCH   1  13
TORSDOF 6
ENDMDL
MODEL     1057
REMARK  Name = ZINC19730041
REMARK  10 active torsions:
REMARK  status: ('A' for Active; 'I' for Inactive)
REMARK    1  A    between atoms: C_1  and  O_2
REMARK    2  A    between atoms: O_2  and  C_3
REMARK    3  A    between atoms: C_5  and  C_13
REMARK    4  A    between atoms: C_7  and  O_11
REMARK    5  A    between atoms: C_8  and  O_9
REMARK    6  A    between atoms: O_9  and  C_10
REMARK    7  A    between atoms: O_11  and  C_12
REMARK    8  A    between atoms: N_15  and  C_19
REMARK    9  A    between atoms: C_19  and  C_20
REMARK   10  A    between atoms: C_20  and  N_21
REMARK                            x       y       z     vdW  Elec       q    Type
REMARK                         _______ _______ _______ _____ _____    ______ ____
ROOT
ATOM      1  C   UNL     1       4.442  -1.945   3.431  0.00  0.00    +0.000 A 
ATOM      2  C   UNL     1       3.765  -1.516   2.299  0.00  0.00    +0.000 A 
ATOM      3  C   UNL     1       2.901  -0.440   2.376  0.00  0.00    +0.000 A 
ATOM      4  C   UNL     1       2.712   0.216   3.577  0.00  0.00    +0.000 A 
ATOM      5  C   UNL     1       3.381  -0.210   4.715  0.00  0.00    +0.000 A 
ATOM      6  C   UNL     1       4.251  -1.292   4.642  0.00  0.00    +0.000 A 
ENDROOT
BRANCH   3   7
ATOM      7  C   UNL     1       2.167   0.023   1.143  0.00  0.00    +0.000 C 
ATOM      8  C   UNL     1       0.736  -0.521   1.166  0.00  0.00    +0.000 C 
ATOM      9  N   UNL     1       0.002  -0.004   0.002  0.00  0.00    +0.000 NA
ATOM     10  C   UNL     1      -0.018   1.466   0.010  0.00  0.00    +0.000 C 
ATOM     11  C   UNL     1       1.420   1.990  -0.001  0.00  0.00    +0.000 C 
ATOM     12  O   UNL     1       2.127   1.452   1.120  0.00  0.00    +0.000 OA
BRANCH   9  13
ATOM     13  C   UNL     1      -1.361  -0.549  -0.045  0.00  0.00    +0.000 C 
BRANCH  13  14
ATOM     14  C   UNL     1      -2.010  -0.186  -1.383  0.00  0.00    +0.000 C 
BRANCH  14  15
ATOM     15  N   UNL     1      -3.373  -0.731  -1.430  0.00  0.00    +0.000 N 
ATOM     16  H   UNL     1      -3.930  -0.333  -0.660  0.00  0.00    +0.000 HD
ATOM     17  H   UNL     1      -3.338  -1.756  -1.333  0.00  0.00    +0.000 HD
ATOM     18  H   UNL     1      -3.810  -0.487  -2.330  0.00  0.00    +0.000 HD
ENDBRANCH  14  15
ENDBRANCH  13  14
ENDBRANCH   9  13
ENDBRANCH   3   7
BRANCH   5  19
ATOM     19  O   UNL     1       3.191   0.433   5.898  0.00  0.00    +0.000 OA
ATOM     20  C   UNL     1       2.283   1.536   5.898  0.00  0.00    +0.000 C 
ENDBRANCH   5  19
BRANCH   6  21
ATOM     21  O   UNL     1       4.913  -1.711   5.755  0.00  0.00    +0.000 OA
ATOM     22  C   UNL     1       6.189  -1.120   6.011  0.00  0.00    +0.000 C 
ENDBRANCH   6  21
BRANCH   1  24
ATOM     23  C   UNL     1       5.441  -3.627   2.077  0.00  0.00    +0.000 C 
ATOM     24  O   UNL     1       5.293  -3.004   3.355  0.00  0.00    +0.000 OA
ENDBRANCH   1  24
TORSDOF 7
ENDMDL
MODEL     1058
REMARK  Name = ZINC19795415
REMARK  8 active torsions:
REMARK  status: ('A' for Active; 'I' for Inactive)
REMARK    1  A    between atoms: C_1  and  C_2
REMARK    2  A    between atoms: C_2  and  N_3
REMARK    3  A    between atoms: N_3  and  C_4
REMARK    4  A    between atoms: N_3  and  C_6
REMARK    5  A    between atoms: C_4  and  C_5
REMARK    6  A    between atoms: C_6  and  C_7
REMARK    7  A    between atoms: C_7  and  N_8
REMARK    8  A    between atoms: C_13  and  O_14
REMARK                            x       y       z     vdW  Elec       q    Type
REMARK                         _______ _______ _______ _____ _____    ______ ____
ROOT
ATOM      1  N   UNL     1      -0.417   4.999  -1.083  0.00  0.00    +0.000 N 
ATOM      2  C   UNL     1      -0.519   3.651  -1.338  0.00  0.00    +0.000 A 
ATOM      3  C   UNL     1       0.615   2.904  -1.736  0.00  0.00    +0.000 A 
ATOM      4  N   UNL     1       0.491   1.626  -1.971  0.00  0.00    +0.000 NA
ATOM      5  N   UNL     1      -0.647   1.039  -1.846  0.00  0.00    +0.000 NA
ATOM      6  C   UNL     1      -1.748   1.716  -1.475  0.00  0.00    +0.000 A 
ATOM      7  N   UNL     1      -1.684   3.025  -1.215  0.00  0.00    +0.000 NA
ATOM      8  H   UNL     1       0.491   5.474  -1.182  0.00  0.00    +0.000 HD
ENDROOT
BRANCH   6   9
ATOM      9  O   UNL     1      -2.813   1.130  -1.370  0.00  0.00    +0.000 OA
ATOM     10  H   UNL     1      -2.640   0.398  -0.726  0.00  0.00    +0.000 HD
ENDBRANCH   6   9
BRANCH   1  11
ATOM     11  C   UNL     1      -1.600   5.758  -0.672  0.00  0.00    +0.000 C 
BRANCH  11  12
ATOM     12  C   UNL     1      -1.216   7.223  -0.454  0.00  0.00    +0.000 C 
BRANCH  12  13
ATOM     13  N   UNL     1      -2.402   7.985  -0.042  0.00  0.00    +0.000 N 
ATOM     14  H   UNL     1      -3.151   7.799  -0.724  0.00  0.00    +0.000 HD
BRANCH  13  15
ATOM     15  C   UNL     1      -2.131   9.428  -0.052  0.00  0.00    +0.000 C 
ATOM     16  C   UNL     1      -3.453  10.196  -0.007  0.00  0.00    +0.000 C 
ENDBRANCH  13  15
BRANCH  13  18
ATOM     17  C   UNL     1      -1.778   7.786   2.318  0.00  0.00    +0.000 C 
ATOM     18  C   UNL     1      -2.875   7.548   1.278  0.00  0.00    +0.000 C 
ENDBRANCH  13  18
ENDBRANCH  12  13
ENDBRANCH  11  12
ENDBRANCH   1  11
TORSDOF 6
ENDMDL
MODEL     1059
REMARK  Name = ZINC01923362
REMARK  8 active torsions:
REMARK  status: ('A' for Active; 'I' for Inactive)
REMARK    1  A    between atoms: C_1  and  O_2
REMARK    2  A    between atoms: O_2  and  C_3
REMARK    3  A    between atoms: C_3  and  C_5
REMARK    4  A    between atoms: C_8  and  C_10
REMARK    5  A    between atoms: C_10  and  N_11
REMARK    6  A    between atoms: C_15  and  S_16
REMARK    7  A    between atoms: S_16  and  C_17
REMARK    8  A    between atoms: C_17  and  C_18
REMARK                            x       y       z     vdW  Elec       q    Type
REMARK                         _______ _______ _______ _____ _____    ______ ____
ROOT
ATOM      1  N   UNL     1       2.504   4.766   0.009  0.00  0.00    +0.000 N 
ATOM      2  C   UNL     1       1.942   6.012   0.017  0.00  0.00    +0.000 A 
ATOM      3  N   UNL     1       0.640   5.869   0.029  0.00  0.00    +0.000 NA
ATOM      4  N   UNL     1       0.354   4.498   0.023  0.00  0.00    +0.000 NA
ATOM      5  C   UNL     1       1.492   3.847   0.009  0.00  0.00    +0.000 A 
ATOM      6  N   UNL     1       2.632   7.218   0.017  0.00  0.00    +0.000 N 
ATOM      7  H   UNL     1       3.659   7.146   0.011  0.00  0.00    +0.000 HD
ATOM      8  H   UNL     1       2.160   8.133   0.023  0.00  0.00    +0.000 HD
ENDROOT
BRANCH   1   9
ATOM      9  C   UNL     1       3.938   4.468   0.001  0.00  0.00    +0.000 C 
BRANCH   9  13
ATOM     10  C   UNL     1       4.947   3.549  -3.387  0.00  0.00    +0.000 A 
ATOM     11  C   UNL     1       5.238   4.883  -3.420  0.00  0.00    +0.000 A 
ATOM     12  C   UNL     1       4.900   5.401  -2.161  0.00  0.00    +0.000 A 
ATOM     13  C   UNL     1       4.423   4.374  -1.423  0.00  0.00    +0.000 A 
ATOM     14  O   UNL     1       4.458   3.259  -2.163  0.00  0.00    +0.000 OA
BRANCH  10  15
ATOM     15  C   UNL     1       5.138   2.598  -4.485  0.00  0.00    +0.000 C 
ATOM     16  O   UNL     1       5.594   2.978  -5.546  0.00  0.00    +0.000 OA
BRANCH  15  18
ATOM     17  C   UNL     1       5.023   0.415  -5.449  0.00  0.00    +0.000 C 
ATOM     18  O   UNL     1       4.807   1.301  -4.319  0.00  0.00    +0.000 OA
ENDBRANCH  15  18
ENDBRANCH  10  15
ENDBRANCH   9  13
ENDBRANCH   1   9
BRANCH   5  19
ATOM     19  S   UNL     1       1.684   2.096  -0.003  0.00  0.00    +0.000 S 
BRANCH  19  20
ATOM     20  C   UNL     1      -0.018   1.468   0.010  0.00  0.00    +0.000 C 
BRANCH  20  21
ATOM     21  C   UNL     1       0.002  -0.004   0.002  0.00  0.00    +0.000 C 
ATOM     22  N   UNL     1       0.018  -1.140  -0.004  0.00  0.00    +0.000 NA
ENDBRANCH  20  21
ENDBRANCH  19  20
ENDBRANCH   5  19
TORSDOF 7
ENDMDL
MODEL     1060
REMARK  Name = ZINC19841082
REMARK  8 active torsions:
REMARK  status: ('A' for Active; 'I' for Inactive)
REMARK    1  A    between atoms: C_1  and  O_2
REMARK    2  A    between atoms: O_2  and  C_3
REMARK    3  A    between atoms: C_6  and  N_21
REMARK    4  A    between atoms: C_8  and  N_9
REMARK    5  A    between atoms: C_10  and  C_12
REMARK    6  A    between atoms: C_12  and  C_13
REMARK    7  A    between atoms: C_13  and  C_14
REMARK    8  A    between atoms: C_14  and  N_15
REMARK                            x       y       z     vdW  Elec       q    Type
REMARK                         _______ _______ _______ _____ _____    ______ ____
ROOT
ATOM      1  N   UNL     1       0.084  -3.888   3.090  0.00  0.00    +0.000 N 
ATOM      2  C   UNL     1       0.068  -2.562   2.851  0.00  0.00    +0.000 C 
ATOM      3  O   UNL     1       0.059  -1.778   3.777  0.00  0.00    +0.000 OA
ATOM      4  H   UNL     1       0.005  -4.553   2.308  0.00  0.00    +0.000 HD
ENDROOT
BRANCH   1  10
ATOM      5  C   UNL     1      -0.268  -5.627   4.736  0.00  0.00    +0.000 A 
ATOM      6  C   UNL     1      -0.144  -6.093   6.035  0.00  0.00    +0.000 A 
ATOM      7  C   UNL     1       0.452  -5.305   7.000  0.00  0.00    +0.000 A 
ATOM      8  C   UNL     1       0.929  -4.043   6.672  0.00  0.00    +0.000 A 
ATOM      9  C   UNL     1       0.813  -3.573   5.371  0.00  0.00    +0.000 A 
ATOM     10  C   UNL     1       0.209  -4.361   4.403  0.00  0.00    +0.000 A 
BRANCH   8  11
ATOM     11  N   UNL     1       1.534  -3.246   7.651  0.00  0.00    +0.000 N 
ATOM     12  H   UNL     1       1.624  -3.596   8.616  0.00  0.00    +0.000 HD
ATOM     13  H   UNL     1       1.887  -2.310   7.408  0.00  0.00    +0.000 HD
ENDBRANCH   8  11
BRANCH   5  15
ATOM     14  C   UNL     1      -1.323  -7.690   4.199  0.00  0.00    +0.000 C 
ATOM     15  O   UNL     1      -0.856  -6.404   3.787  0.00  0.00    +0.000 OA
ENDBRANCH   5  15
ENDBRANCH   1  10
BRANCH   2  16
ATOM     16  C   UNL     1       0.059  -2.052   1.433  0.00  0.00    +0.000 C 
BRANCH  16  17
ATOM     17  C   UNL     1       0.041  -0.522   1.441  0.00  0.00    +0.000 C 
BRANCH  17  18
ATOM     18  C   UNL     1       0.032  -0.004   0.001  0.00  0.00    +0.000 C 
BRANCH  18  19
ATOM     19  N   UNL     1       0.014   1.460   0.009  0.00  0.00    +0.000 N 
ATOM     20  C   UNL     1       1.200   2.330   0.011  0.00  0.00    +0.000 C 
ATOM     21  C   UNL     1       0.611   3.754   0.019  0.00  0.00    +0.000 C 
ATOM     22  O   UNL     1      -0.830   3.539   0.020  0.00  0.00    +0.000 OA
ATOM     23  C   UNL     1      -1.085   2.226   0.008  0.00  0.00    +0.000 C 
ATOM     24  O   UNL     1      -2.211   1.770   0.002  0.00  0.00    +0.000 OA
ENDBRANCH  18  19
ENDBRANCH  17  18
ENDBRANCH  16  17
ENDBRANCH   2  16
TORSDOF 7
ENDMDL
MODEL     1061
REMARK  Name = ZINC02568943
REMARK  9 active torsions:
REMARK  status: ('A' for Active; 'I' for Inactive)
REMARK    1  A    between atoms: C_1  and  C_2
REMARK    2  A    between atoms: C_2  and  N_3
REMARK    3  A    between atoms: C_5  and  C_8
REMARK    4  A    between atoms: C_11  and  S_15
REMARK    5  A    between atoms: N_12  and  C_13
REMARK    6  A    between atoms: C_13  and  C_14
REMARK    7  A    between atoms: S_15  and  C_16
REMARK    8  A    between atoms: C_16  and  C_17
REMARK    9  A    between atoms: N_19  and  N_20
REMARK                            x       y       z     vdW  Elec       q    Type
REMARK                         _______ _______ _______ _____ _____    ______ ____
ROOT
ATOM      1  C   UNL     1      -0.816  -3.315   1.238  0.00  0.00    +0.000 A 
ATOM      2  N   UNL     1      -1.310  -3.374   2.452  0.00  0.00    +0.000 NA
ATOM      3  N   UNL     1      -1.619  -4.587   2.742  0.00  0.00    +0.000 NA
ATOM      4  C   UNL     1      -1.333  -5.379   1.735  0.00  0.00    +0.000 A 
ATOM      5  N   UNL     1      -0.811  -4.598   0.742  0.00  0.00    +0.000 N 
ENDROOT
BRANCH   1   8
ATOM      6  N   UNL     1       0.002  -0.004   0.002  0.00  0.00    +0.000 N 
ATOM      7  C   UNL     1      -0.605  -0.807   0.898  0.00  0.00    +0.000 A 
ATOM      8  C   UNL     1      -0.346  -2.099   0.537  0.00  0.00    +0.000 A 
ATOM      9  C   UNL     1       0.451  -2.062  -0.626  0.00  0.00    +0.000 A 
ATOM     10  N   UNL     1       0.650  -0.810  -0.941  0.00  0.00    +0.000 NA
BRANCH   6  12
ATOM     11  C   UNL     1       1.418   1.990  -0.001  0.00  0.00    +0.000 C 
ATOM     12  C   UNL     1      -0.018   1.461   0.010  0.00  0.00    +0.000 C 
ENDBRANCH   6  12
ENDBRANCH   1   8
BRANCH   5  13
ATOM     13  C   UNL     1      -0.343  -5.036  -0.576  0.00  0.00    +0.000 C 
ATOM     14  C   UNL     1       1.143  -5.391  -0.498  0.00  0.00    +0.000 C 
ENDBRANCH   5  13
BRANCH   4  15
ATOM     15  S   UNL     1      -1.574  -7.123   1.676  0.00  0.00    +0.000 S 
BRANCH  15  16
ATOM     16  C   UNL     1      -2.283  -7.399   3.318  0.00  0.00    +0.000 C 
BRANCH  16  17
ATOM     17  C   UNL     1      -2.579  -8.865   3.498  0.00  0.00    +0.000 C 
ATOM     18  O   UNL     1      -2.335  -9.647   2.603  0.00  0.00    +0.000 OA
ATOM     19  N   UNL     1      -3.115  -9.308   4.653  0.00  0.00    +0.000 N 
ATOM     20  H   UNL     1      -3.321  -8.644   5.412  0.00  0.00    +0.000 HD
BRANCH  19  21
ATOM     21  N   UNL     1      -3.383 -10.637   4.816  0.00  0.00    +0.000 NA
ATOM     22  H   UNL     1      -3.176 -11.302   4.056  0.00  0.00    +0.000 HD
ATOM     23  H   UNL     1      -3.793 -10.976   5.698  0.00  0.00    +0.000 HD
ENDBRANCH  19  21
ENDBRANCH  16  17
ENDBRANCH  15  16
ENDBRANCH   4  15
TORSDOF 7
ENDMDL
MODEL     1062
REMARK  Name = ZINC09993738
REMARK  8 active torsions:
REMARK  status: ('A' for Active; 'I' for Inactive)
REMARK    1  A    between atoms: C_1  and  N_19
REMARK    2  A    between atoms: C_2  and  N_19
REMARK    3  A    between atoms: C_3  and  C_4
REMARK    4  A    between atoms: C_3  and  N_19
REMARK    5  A    between atoms: C_4  and  C_5
REMARK    6  A    between atoms: C_5  and  N_6
REMARK    7  A    between atoms: C_7  and  C_9
REMARK    8  A    between atoms: N_11  and  C_12
REMARK                            x       y       z     vdW  Elec       q    Type
REMARK                         _______ _______ _______ _____ _____    ______ ____
ROOT
ATOM      1  N   UNL     1      -6.012   3.408  -0.238  0.00  0.00    +0.000 N 
ATOM      2  C   UNL     1      -4.826   4.042  -0.144  0.00  0.00    +0.000 C 
ATOM      3  O   UNL     1      -4.786   5.255  -0.138  0.00  0.00    +0.000 OA
ATOM      4  H   UNL     1      -6.046   2.378  -0.243  0.00  0.00    +0.000 HD
ENDROOT
BRANCH   2   5
ATOM      5  C   UNL     1      -3.562   3.252  -0.048  0.00  0.00    +0.000 C 
ATOM      6  O   UNL     1      -3.603   2.039  -0.054  0.00  0.00    +0.000 OA
ATOM      7  N   UNL     1      -2.377   3.887   0.046  0.00  0.00    +0.000 N 
ATOM      8  H   UNL     1      -2.347   4.912   0.138  0.00  0.00    +0.000 HD
BRANCH   7   9
ATOM      9  C   UNL     1      -1.187   3.153   0.018  0.00  0.00    +0.000 A 
ATOM     10  C   UNL     1      -1.142   1.903  -0.594  0.00  0.00    +0.000 A 
ATOM     11  C   UNL     1       0.058   1.211  -0.590  0.00  0.00    +0.000 A 
ATOM     12  C   UNL     1       1.167   1.784   0.005  0.00  0.00    +0.000 A 
ATOM     13  N   UNL     1       1.094   2.973   0.572  0.00  0.00    +0.000 NA
ATOM     14  C   UNL     1      -0.030   3.663   0.596  0.00  0.00    +0.000 A 
ATOM     15 CL   UNL     1      -0.064   5.223   1.358  0.00  0.00    +0.000 Cl
ENDBRANCH   7   9
ENDBRANCH   2   5
BRANCH   1  16
ATOM     16  C   UNL     1      -7.252   4.182  -0.332  0.00  0.00    +0.000 C 
BRANCH  16  17
ATOM     17  C   UNL     1      -8.443   3.228  -0.427  0.00  0.00    +0.000 C 
BRANCH  17  18
ATOM     18  C   UNL     1      -9.738   4.037  -0.526  0.00  0.00    +0.000 C 
BRANCH  18  21
ATOM     19  C   UNL     1     -11.043   2.353   0.625  0.00  0.00    +0.000 C 
ATOM     20  C   UNL     1     -12.115   3.848  -0.950  0.00  0.00    +0.000 C 
ATOM     21  N   UNL     1     -10.877   3.102  -0.639  0.00  0.00    +0.000 N 
ATOM     22  H   UNL     1     -10.688   2.434  -1.400  0.00  0.00    +0.000 HD
ENDBRANCH  18  21
ENDBRANCH  17  18
ENDBRANCH  16  17
ENDBRANCH   1  16
TORSDOF 6
ENDMDL
MODEL     1063
REMARK  Name = ZINC19844140
REMARK  8 active torsions:
REMARK  status: ('A' for Active; 'I' for Inactive)
REMARK    1  A    between atoms: C_1  and  O_2
REMARK    2  A    between atoms: O_2  and  C_3
REMARK    3  A    between atoms: C_7  and  N_9
REMARK    4  A    between atoms: N_12  and  C_15
REMARK    5  A    between atoms: C_15  and  C_16
REMARK    6  A    between atoms: C_16  and  C_17
REMARK    7  A    between atoms: C_17  and  C_18
REMARK    8  A    between atoms: N_19  and  O_20
REMARK                            x       y       z     vdW  Elec       q    Type
REMARK                         _______ _______ _______ _____ _____    ______ ____
ROOT
ATOM      1  N   UNL     1       0.200  -0.201   4.984  0.00  0.00    +0.000 N 
ATOM      2  C   UNL     1       0.286   1.262   4.880  0.00  0.00    +0.000 C 
ATOM      3  C   UNL     1      -0.531   1.735   3.675  0.00  0.00    +0.000 C 
ATOM      4  N   UNL     1      -0.018   1.093   2.457  0.00  0.00    +0.000 N 
ATOM      5  C   UNL     1      -0.105  -0.371   2.560  0.00  0.00    +0.000 C 
ATOM      6  C   UNL     1       0.712  -0.844   3.765  0.00  0.00    +0.000 C 
ATOM      7  H   UNL     1       0.975   1.346   2.357  0.00  0.00    +0.000 HD
ENDROOT
BRANCH   1  12
ATOM      8  C   UNL     1       1.584  -2.478   7.518  0.00  0.00    +0.000 A 
ATOM      9  C   UNL     1       2.218  -1.575   8.361  0.00  0.00    +0.000 A 
ATOM     10  C   UNL     1       2.180  -0.223   8.080  0.00  0.00    +0.000 A 
ATOM     11  C   UNL     1       1.516   0.235   6.959  0.00  0.00    +0.000 A 
ATOM     12  C   UNL     1       0.875  -0.664   6.115  0.00  0.00    +0.000 A 
ATOM     13  C   UNL     1       0.913  -2.023   6.395  0.00  0.00    +0.000 A 
BRANCH   8  15
ATOM     14  C   UNL     1       2.333  -4.206   8.969  0.00  0.00    +0.000 C 
ATOM     15  O   UNL     1       1.623  -3.808   7.795  0.00  0.00    +0.000 OA
ENDBRANCH   8  15
ENDBRANCH   1  12
BRANCH   4  16
ATOM     16  C   UNL     1      -0.729   1.579   1.267  0.00  0.00    +0.000 C 
BRANCH  16  17
ATOM     17  C   UNL     1      -0.013   1.086   0.008  0.00  0.00    +0.000 C 
BRANCH  17  18
ATOM     18  C   UNL     1      -0.753   1.593  -1.232  0.00  0.00    +0.000 C 
BRANCH  18  19
ATOM     19  C   UNL     1      -0.047   1.107  -2.471  0.00  0.00    +0.000 C 
ATOM     20  N   UNL     1       1.014   0.378  -2.367  0.00  0.00    +0.000 NA
ATOM     21  N   UNL     1      -0.534   1.440  -3.716  0.00  0.00    +0.000 N 
ATOM     22  H   UNL     1      -1.380   2.021  -3.799  0.00  0.00    +0.000 HD
ATOM     23  H   UNL     1      -0.052   1.107  -4.563  0.00  0.00    +0.000 HD
BRANCH  20  24
ATOM     24  O   UNL     1       1.677  -0.079  -3.532  0.00  0.00    +0.000 OA
ATOM     25  H   UNL     1       1.893   0.740  -4.045  0.00  0.00    +0.000 HD
ENDBRANCH  20  24
ENDBRANCH  18  19
ENDBRANCH  17  18
ENDBRANCH  16  17
ENDBRANCH   4  16
TORSDOF 7
ENDMDL
MODEL     1064
REMARK  Name = ZINC17284513
REMARK  8 active torsions:
REMARK  status: ('A' for Active; 'I' for Inactive)
REMARK    1  A    between atoms: C_1  and  C_2
REMARK    2  A    between atoms: C_2  and  C_3
REMARK    3  A    between atoms: C_3  and  C_4
REMARK    4  A    between atoms: C_4  and  C_5
REMARK    5  A    between atoms: C_5  and  C_12
REMARK    6  A    between atoms: N_13  and  N_14
REMARK    7  A    between atoms: N_14  and  C_15
REMARK    8  A    between atoms: C_15  and  N_17
REMARK                            x       y       z     vdW  Elec       q    Type
REMARK                         _______ _______ _______ _____ _____    ______ ____
ROOT
ATOM      1  C   UNL     1       0.006  -0.014  -0.009  0.00  0.00    +0.000 C 
ATOM      2  C   UNL     1       1.488  -0.335  -0.024  0.00  0.00    +0.000 C 
ATOM      3  O   UNL     1       1.999  -1.434  -0.018  0.00  0.00    +0.000 OA
ATOM      4  N   UNL     1       2.118   0.856  -0.047  0.00  0.00    +0.000 N 
ATOM      5  C   UNL     1       1.250   1.874  -0.048  0.00  0.00    +0.000 C 
ATOM      6  O   UNL     1       1.580   3.044  -0.066  0.00  0.00    +0.000 OA
ATOM      7  N   UNL     1      -0.030   1.459  -0.026  0.00  0.00    +0.000 NA
ATOM      8  H   UNL     1       3.142   0.969  -0.062  0.00  0.00    +0.000 HD
ENDROOT
BRANCH   1   9
ATOM      9  C   UNL     1      -0.638  -0.545   1.246  0.00  0.00    +0.000 C 
ATOM     10  N   UNL     1      -1.830  -0.193   1.552  0.00  0.00    +0.000 NA
BRANCH  10  11
ATOM     11  N   UNL     1      -2.572   0.606   0.672  0.00  0.00    +0.000 N 
ATOM     12  H   UNL     1      -2.133   0.975  -0.184  0.00  0.00    +0.000 HD
BRANCH  11  13
ATOM     13  C   UNL     1      -3.861   0.890   0.944  0.00  0.00    +0.000 C 
ATOM     14  S   UNL     1      -4.768   1.866  -0.132  0.00  0.00    +0.000 S 
BRANCH  13  15
ATOM     15  N   UNL     1      -4.436   0.407   2.063  0.00  0.00    +0.000 N 
ATOM     16  H   UNL     1      -3.891  -0.180   2.710  0.00  0.00    +0.000 HD
ATOM     17  H   UNL     1      -5.421   0.625   2.271  0.00  0.00    +0.000 HD
ENDBRANCH  13  15
ENDBRANCH  11  13
ENDBRANCH  10  11
ENDBRANCH   1   9
BRANCH   1  18
ATOM     18  C   UNL     1      -0.684  -0.584  -1.249  0.00  0.00    +0.000 C 
BRANCH  18  19
ATOM     19  C   UNL     1      -0.744  -2.109  -1.144  0.00  0.00    +0.000 C 
BRANCH  19  21
ATOM     20  C   UNL     1      -1.494  -4.205  -2.280  0.00  0.00    +0.000 C 
ATOM     21  C   UNL     1      -1.435  -2.679  -2.385  0.00  0.00    +0.000 C 
ENDBRANCH  19  21
ENDBRANCH  18  19
ENDBRANCH   1  18
TORSDOF 7
ENDMDL
MODEL     1065
REMARK  Name = ZINC00133162
REMARK  7 active torsions:
REMARK  status: ('A' for Active; 'I' for Inactive)
REMARK    1  A    between atoms: C_4  and  C_7
REMARK    2  A    between atoms: C_7  and  O_8
REMARK    3  A    between atoms: O_8  and  C_9
REMARK    4  A    between atoms: C_12  and  C_15
REMARK    5  A    between atoms: C_15  and  CA_16
REMARK    6  A    between atoms: CA_16  and  C_17
REMARK    7  A    between atoms: CA_16  and  N_20
REMARK                            x       y       z     vdW  Elec       q    Type
REMARK                         _______ _______ _______ _____ _____    ______ ____
ROOT
ATOM      1  C   UNL     1      -0.017   1.383   0.010  0.00  0.00    +0.000 A 
ATOM      2  C   UNL     1       1.177   2.091   0.002  0.00  0.00    +0.000 A 
ATOM      3  C   UNL     1       2.380   1.413  -0.013  0.00  0.00    +0.000 A 
ATOM      4  C   UNL     1       2.396   0.030  -0.021  0.00  0.00    +0.000 A 
ATOM      5  C   UNL     1       1.208  -0.677  -0.013  0.00  0.00    +0.000 A 
ATOM      6  C   UNL     1       0.002  -0.004   0.002  0.00  0.00    +0.000 A 
ENDROOT
BRANCH   1   7
ATOM      7  O   UNL     1      -1.202   2.048   0.019  0.00  0.00    +0.000 OA
BRANCH   7   8
ATOM      8  C   UNL     1      -1.145   3.475   0.026  0.00  0.00    +0.000 C 
BRANCH   8  12
ATOM      9  C   UNL     1      -5.113   5.059   0.054  0.00  0.00    +0.000 A 
ATOM     10  C   UNL     1      -4.465   4.796   1.246  0.00  0.00    +0.000 A 
ATOM     11  C   UNL     1      -3.181   4.284   1.238  0.00  0.00    +0.000 A 
ATOM     12  C   UNL     1      -2.545   4.034   0.036  0.00  0.00    +0.000 A 
ATOM     13  C   UNL     1      -3.191   4.302  -1.157  0.00  0.00    +0.000 A 
ATOM     14  C   UNL     1      -4.476   4.809  -1.148  0.00  0.00    +0.000 A 
ENDBRANCH   8  12
ENDBRANCH   7   8
ENDBRANCH   1   7
BRANCH   4  15
ATOM     15  C   UNL     1       3.711  -0.707  -0.037  0.00  0.00    +0.000 C 
BRANCH  15  16
ATOM     16  CA  UNL     1       4.142  -0.948  -1.485  0.00  0.00    +0.000 C 
BRANCH  16  17
ATOM     17  N   UNL     1       4.418   0.332  -2.160  0.00  0.00    +0.000 N 
ATOM     18  H1  UNL     1       5.169   0.824  -1.656  0.00  0.00    +0.000 HD
ATOM     19  H2  UNL     1       3.565   0.910  -2.147  0.00  0.00    +0.000 HD
ATOM     20  H3  UNL     1       4.707   0.161  -3.134  0.00  0.00    +0.000 HD
ENDBRANCH  16  17
BRANCH  16  21
ATOM     21  C   UNL     1       5.391  -1.791  -1.503  0.00  0.00    +0.000 C 
ATOM     22  O   UNL     1       6.469  -1.269  -1.663  0.00  0.00    +0.000 OA
ATOM     23  OXT UNL     1       5.306  -3.121  -1.342  0.00  0.00    +0.000 OA
ENDBRANCH  16  21
ENDBRANCH  15  16
ENDBRANCH   4  15
TORSDOF 7
ENDMDL
MODEL     1066
REMARK  Name = ZINC05734955
REMARK  10 active torsions:
REMARK  status: ('A' for Active; 'I' for Inactive)
REMARK    1  A    between atoms: C_1  and  C_2
REMARK    2  A    between atoms: C_2  and  C_3
REMARK    3  A    between atoms: C_2  and  N_14
REMARK    4  A    between atoms: C_3  and  C_4
REMARK    5  A    between atoms: C_4  and  C_5
REMARK    6  A    between atoms: C_5  and  C_6
REMARK    7  A    between atoms: C_6  and  C_7
REMARK    8  A    between atoms: C_6  and  C_8
REMARK    9  A    between atoms: C_6  and  O_9
REMARK   10  A    between atoms: O_9  and  P_10
REMARK                            x       y       z     vdW  Elec       q    Type
REMARK                         _______ _______ _______ _____ _____    ______ ____
ROOT
ATOM      1  C   UNL     1       3.634   1.539   1.157  0.00  0.00    +0.000 C 
ENDROOT
BRANCH   1   2
ATOM      2  C   UNL     1       4.410   0.933   2.328  0.00  0.00    +0.000 C 
ATOM      3  C   UNL     1       5.806   1.556   2.392  0.00  0.00    +0.000 C 
ATOM      4  C   UNL     1       3.666   1.216   3.635  0.00  0.00    +0.000 C 
BRANCH   2   5
ATOM      5  O   UNL     1       4.527  -0.479   2.143  0.00  0.00    +0.000 OA
BRANCH   5   6
ATOM      6  P   UNL     1       5.562  -1.390   2.974  0.00  0.00    +0.000 P 
ATOM      7  O   UNL     1       5.340  -1.192   4.423  0.00  0.00    +0.000 OA
ATOM      8  O   UNL     1       5.331  -2.940   2.602  0.00  0.00    +0.000 OA
ATOM      9  O   UNL     1       7.070  -0.968   2.599  0.00  0.00    +0.000 OA
ENDBRANCH   5   6
ENDBRANCH   2   5
ENDBRANCH   1   2
BRANCH   1  10
ATOM     10  C   UNL     1       2.199   1.009   1.168  0.00  0.00    +0.000 C 
BRANCH  10  11
ATOM     11  C   UNL     1       1.423   1.615  -0.003  0.00  0.00    +0.000 C 
BRANCH  11  13
ATOM     12  C   UNL     1      -0.753   1.593  -1.232  0.00  0.00    +0.000 C 
ATOM     13  C   UNL     1      -0.013   1.086   0.008  0.00  0.00    +0.000 C 
BRANCH  13  14
ATOM     14  N   UNL     1      -0.699   1.585   1.213  0.00  0.00    +0.000 N 
ATOM     15  H   UNL     1      -1.670   1.239   1.228  0.00  0.00    +0.000 HD
ATOM     16  H   UNL     1      -0.700   2.615   1.212  0.00  0.00    +0.000 HD
ATOM     17  H   UNL     1      -0.205   1.246   2.050  0.00  0.00    +0.000 HD
ENDBRANCH  13  14
ENDBRANCH  11  13
ENDBRANCH  10  11
ENDBRANCH   1  10
TORSDOF 7
ENDMDL
MODEL     1067
REMARK  Name = ZINC19672148
REMARK  7 active torsions:
REMARK  status: ('A' for Active; 'I' for Inactive)
REMARK    1  A    between atoms: C_1  and  O_2
REMARK    2  A    between atoms: O_2  and  C_3
REMARK    3  A    between atoms: C_3  and  C_4
REMARK    4  A    between atoms: C_4  and  C_5
REMARK    5  A    between atoms: C_5  and  N_6
REMARK    6  A    between atoms: N_6  and  S_7
REMARK    7  A    between atoms: S_7  and  C_10
REMARK                            x       y       z     vdW  Elec       q    Type
REMARK                         _______ _______ _______ _____ _____    ______ ____
ROOT
ATOM      1  C   UNL     1      -2.559  -0.506  -0.870  0.00  0.00    +0.000 A 
ATOM      2  C   UNL     1      -3.431   0.557  -0.722  0.00  0.00    +0.000 A 
ATOM      3  C   UNL     1      -4.360   0.825  -1.706  0.00  0.00    +0.000 A 
ATOM      4  C   UNL     1      -4.431   0.028  -2.839  0.00  0.00    +0.000 A 
ATOM      5  C   UNL     1      -3.564  -1.034  -2.986  0.00  0.00    +0.000 A 
ATOM      6  C   UNL     1      -2.628  -1.299  -1.997  0.00  0.00    +0.000 A 
ATOM      7  C   UNL     1      -3.598  -1.925  -4.200  0.00  0.00    +0.000 C 
ATOM      8  N   UNL     1      -4.868  -1.770  -4.915  0.00  0.00    +0.000 N 
ATOM      9  C   UNL     1      -5.125  -0.348  -5.197  0.00  0.00    +0.000 C 
ATOM     10  C   UNL     1      -5.469   0.352  -3.882  0.00  0.00    +0.000 C 
ATOM     11  H   UNL     1      -4.826  -2.291  -5.803  0.00  0.00    +0.000 HD
ATOM     12  H   UNL     1      -5.634  -2.147  -4.339  0.00  0.00    +0.000 HD
ENDROOT
BRANCH   1  13
ATOM     13  S   UNL     1      -1.368  -0.853   0.382  0.00  0.00    +0.000 S 
ATOM     14  O   UNL     1      -1.040  -2.230   0.260  0.00  0.00    +0.000 OA
ATOM     15  O   UNL     1      -1.871  -0.293   1.587  0.00  0.00    +0.000 OA
BRANCH  13  16
ATOM     16  N   UNL     1       0.002  -0.004   0.002  0.00  0.00    +0.000 NA
ATOM     17  H   UNL     1       0.868  -0.506  -0.240  0.00  0.00    +0.000 HD
BRANCH  16  18
ATOM     18  C   UNL     1      -0.018   1.461   0.010  0.00  0.00    +0.000 C 
BRANCH  18  19
ATOM     19  C   UNL     1       1.418   1.990  -0.001  0.00  0.00    +0.000 C 
BRANCH  19  20
ATOM     20  C   UNL     1       1.397   3.520   0.008  0.00  0.00    +0.000 C 
BRANCH  20  22
ATOM     21  C   UNL     1       2.831   5.441   0.004  0.00  0.00    +0.000 C 
ATOM     22  O   UNL     1       2.737   4.015  -0.003  0.00  0.00    +0.000 OA
ENDBRANCH  20  22
ENDBRANCH  19  20
ENDBRANCH  18  19
ENDBRANCH  16  18
ENDBRANCH  13  16
ENDBRANCH   1  13
TORSDOF 6
ENDMDL
MODEL     1068
REMARK  Name = ZINC32047503
REMARK  7 active torsions:
REMARK  status: ('A' for Active; 'I' for Inactive)
REMARK    1  A    between atoms: C_1  and  O_2
REMARK    2  A    between atoms: O_2  and  C_3
REMARK    3  A    between atoms: C_3  and  C_4
REMARK    4  A    between atoms: C_4  and  O_5
REMARK    5  A    between atoms: O_5  and  C_6
REMARK    6  A    between atoms: C_6  and  C_7
REMARK    7  A    between atoms: N_9  and  C_10
REMARK                            x       y       z     vdW  Elec       q    Type
REMARK                         _______ _______ _______ _____ _____    ______ ____
ROOT
ATOM      1  C   UNL     1      -1.193  -2.090  -0.088  0.00  0.00    +0.000 A 
ATOM      2  C   UNL     1      -0.011  -2.817  -0.103  0.00  0.00    +0.000 A 
ATOM      3  C   UNL     1      -0.052  -4.201  -0.193  0.00  0.00    +0.000 A 
ATOM      4  C   UNL     1      -1.275  -4.855  -0.281  0.00  0.00    +0.000 A 
ATOM      5  C   UNL     1      -2.451  -4.129  -0.271  0.00  0.00    +0.000 A 
ATOM      6  C   UNL     1      -2.414  -2.750  -0.175  0.00  0.00    +0.000 A 
ATOM      7  F   UNL     1      -3.566  -2.043  -0.166  0.00  0.00    +0.000 F 
ATOM      8  C   UNL     1      -1.315  -6.357  -0.385  0.00  0.00    +0.000 C 
ATOM      9  C   UNL     1      -0.107  -6.846  -1.186  0.00  0.00    +0.000 C 
ATOM     10  C   UNL     1       1.149  -6.205  -0.661  0.00  0.00    +0.000 C 
ATOM     11  O   UNL     1       2.184  -6.836  -0.650  0.00  0.00    +0.000 OA
ATOM     12  N   UNL     1       1.136  -4.939  -0.204  0.00  0.00    +0.000 N 
ATOM     13  H   UNL     1       2.008  -4.511   0.140  0.00  0.00    +0.000 HD
ENDROOT
BRANCH   1  16
ATOM     14  C   UNL     1      -0.159  -0.004  -0.579  0.00  0.00    +0.000 C 
ATOM     15  O   UNL     1       0.749  -0.595  -1.123  0.00  0.00    +0.000 OA
ATOM     16  N   UNL     1      -1.156  -0.694   0.009  0.00  0.00    +0.000 N 
ATOM     17  H   UNL     1      -1.890  -0.194   0.531  0.00  0.00    +0.000 HD
BRANCH  14  18
ATOM     18  C   UNL     1      -0.172   1.503  -0.560  0.00  0.00    +0.000 C 
BRANCH  18  19
ATOM     19  O   UNL     1       0.981   1.998  -1.243  0.00  0.00    +0.000 OA
BRANCH  19  20
ATOM     20  C   UNL     1       1.065   3.424  -1.283  0.00  0.00    +0.000 C 
BRANCH  20  21
ATOM     21  C   UNL     1       2.332   3.840  -2.034  0.00  0.00    +0.000 C 
BRANCH  21  23
ATOM     22  C   UNL     1       3.372   3.769  -4.193  0.00  0.00    +0.000 C 
ATOM     23  O   UNL     1       2.233   3.428  -3.399  0.00  0.00    +0.000 OA
ENDBRANCH  21  23
ENDBRANCH  20  21
ENDBRANCH  19  20
ENDBRANCH  18  19
ENDBRANCH  14  18
ENDBRANCH   1  16
TORSDOF 6
ENDMDL
MODEL     1069
REMARK  Name = ZINC20261639
REMARK  9 active torsions:
REMARK  status: ('A' for Active; 'I' for Inactive)
REMARK    1  A    between atoms: C_1  and  C_2
REMARK    2  A    between atoms: C_2  and  O_3
REMARK    3  A    between atoms: O_3  and  C_4
REMARK    4  A    between atoms: C_9  and  N_10
REMARK    5  A    between atoms: N_10  and  C_11
REMARK    6  A    between atoms: N_10  and  S_12
REMARK    7  A    between atoms: S_12  and  C_15
REMARK    8  A    between atoms: C_15  and  C_16
REMARK    9  A    between atoms: C_16  and  N_17
REMARK                            x       y       z     vdW  Elec       q    Type
REMARK                         _______ _______ _______ _____ _____    ______ ____
ROOT
ATOM      1  N   UNL     1      -0.751   1.822   1.438  0.00  0.00    +0.000 N 
ATOM      2  C   UNL     1      -0.462   3.111   2.070  0.00  0.00    +0.000 C 
ENDROOT
BRANCH   1   8
ATOM      3  C   UNL     1      -1.172  -0.082   2.872  0.00  0.00    +0.000 A 
ATOM      4  C   UNL     1      -2.063  -0.960   3.466  0.00  0.00    +0.000 A 
ATOM      5  C   UNL     1      -3.420  -0.830   3.236  0.00  0.00    +0.000 A 
ATOM      6  C   UNL     1      -3.892   0.176   2.413  0.00  0.00    +0.000 A 
ATOM      7  C   UNL     1      -3.010   1.059   1.819  0.00  0.00    +0.000 A 
ATOM      8  C   UNL     1      -1.647   0.931   2.042  0.00  0.00    +0.000 A 
BRANCH   3   9
ATOM      9  O   UNL     1       0.163  -0.208   3.099  0.00  0.00    +0.000 OA
BRANCH   9  11
ATOM     10  C   UNL     1       2.102  -1.252   4.095  0.00  0.00    +0.000 C 
ATOM     11  C   UNL     1       0.578  -1.269   3.961  0.00  0.00    +0.000 C 
ENDBRANCH   9  11
ENDBRANCH   3   9
ENDBRANCH   1   8
BRANCH   1  12
ATOM     12  S   UNL     1      -0.017   1.417   0.010  0.00  0.00    +0.000 S 
ATOM     13  O   UNL     1       0.002  -0.004   0.002  0.00  0.00    +0.000 OA
ATOM     14  O   UNL     1       1.195   2.158   0.002  0.00  0.00    +0.000 OA
BRANCH  12  15
ATOM     15  C   UNL     1      -1.135   2.034  -1.279  0.00  0.00    +0.000 C 
BRANCH  15  16
ATOM     16  C   UNL     1      -0.551   1.712  -2.657  0.00  0.00    +0.000 C 
BRANCH  16  17
ATOM     17  N   UNL     1      -1.456   2.211  -3.700  0.00  0.00    +0.000 N 
ATOM     18  H   UNL     1      -1.563   3.231  -3.604  0.00  0.00    +0.000 HD
ATOM     19  H   UNL     1      -2.376   1.759  -3.604  0.00  0.00    +0.000 HD
ATOM     20  H   UNL     1      -1.064   1.995  -4.628  0.00  0.00    +0.000 HD
ENDBRANCH  16  17
ENDBRANCH  15  16
ENDBRANCH  12  15
ENDBRANCH   1  12
TORSDOF 7
ENDMDL
MODEL     1070
REMARK  Name = ZINC03888603
REMARK  8 active torsions:
REMARK  status: ('A' for Active; 'I' for Inactive)
REMARK    1  A    between atoms: C_1  and  C_2
REMARK    2  A    between atoms: C_2  and  C_3
REMARK    3  A    between atoms: C_3  and  C_4
REMARK    4  A    between atoms: C_4  and  N_5
REMARK    5  A    between atoms: N_5  and  C_6
REMARK    6  A    between atoms: C_9  and  S_13
REMARK    7  A    between atoms: C_11  and  N_12
REMARK    8  A    between atoms: S_13  and  N_16
REMARK                            x       y       z     vdW  Elec       q    Type
REMARK                         _______ _______ _______ _____ _____    ______ ____
ROOT
ATOM      1  C   UNL     1      -2.353   2.667   3.688  0.00  0.00    +0.000 A 
ATOM      2  C   UNL     1      -1.429   3.533   3.121  0.00  0.00    +0.000 A 
ATOM      3  C   UNL     1      -0.716   3.145   2.002  0.00  0.00    +0.000 A 
ATOM      4  C   UNL     1      -0.927   1.900   1.439  0.00  0.00    +0.000 A 
ATOM      5  C   UNL     1      -1.845   1.031   1.998  0.00  0.00    +0.000 A 
ATOM      6  C   UNL     1      -2.562   1.409   3.124  0.00  0.00    +0.000 A 
ENDROOT
BRANCH   6   7
ATOM      7  N   UNL     1      -3.493   0.531   3.691  0.00  0.00    +0.000 N 
ATOM      8  H   UNL     1      -4.024   0.815   4.527  0.00  0.00    +0.000 HD
ATOM      9  H   UNL     1      -3.647  -0.398   3.273  0.00  0.00    +0.000 HD
ENDBRANCH   6   7
BRANCH   4  10
ATOM     10  S   UNL     1      -0.017   1.417   0.010  0.00  0.00    +0.000 S 
ATOM     11  O   UNL     1       0.002  -0.004   0.002  0.00  0.00    +0.000 OA
ATOM     12  O   UNL     1       1.172   2.195   0.003  0.00  0.00    +0.000 OA
BRANCH  10  13
ATOM     13  N   UNL     1      -0.897   1.885  -1.312  0.00  0.00    +0.000 NA
ATOM     14  C   UNL     1      -1.909   1.071  -2.000  0.00  0.00    +0.000 C 
ATOM     15  C   UNL     1      -2.444   1.906  -3.183  0.00  0.00    +0.000 C 
ATOM     16  C   UNL     1      -1.295   2.918  -3.438  0.00  0.00    +0.000 C 
ATOM     17  C   UNL     1      -0.792   3.186  -1.998  0.00  0.00    +0.000 C 
ENDBRANCH  10  13
ENDBRANCH   4  10
BRANCH   1  18
ATOM     18  N   UNL     1      -3.073   3.056   4.824  0.00  0.00    +0.000 N 
ATOM     19  H   UNL     1      -3.759   2.412   5.244  0.00  0.00    +0.000 HD
BRANCH  18  20
ATOM     20  C   UNL     1      -2.852   4.378   5.416  0.00  0.00    +0.000 C 
BRANCH  20  21
ATOM     21  C   UNL     1      -3.758   4.548   6.637  0.00  0.00    +0.000 C 
BRANCH  21  23
ATOM     22  C   UNL     1      -4.433   6.099   8.476  0.00  0.00    +0.000 C 
ATOM     23  C   UNL     1      -3.527   5.929   7.255  0.00  0.00    +0.000 C 
ENDBRANCH  21  23
ENDBRANCH  20  21
ENDBRANCH  18  20
ENDBRANCH   1  18
TORSDOF 7
ENDMDL
MODEL     1071
REMARK  Name = ZINC23626717
REMARK  9 active torsions:
REMARK  status: ('A' for Active; 'I' for Inactive)
REMARK    1  A    between atoms: C_1  and  C_2
REMARK    2  A    between atoms: C_5  and  C_18
REMARK    3  A    between atoms: C_6  and  O_8
REMARK    4  A    between atoms: O_8  and  C_9
REMARK    5  A    between atoms: C_9  and  C_10
REMARK    6  A    between atoms: N_12  and  C_13
REMARK    7  A    between atoms: N_12  and  C_14
REMARK    8  A    between atoms: C_14  and  C_15
REMARK    9  A    between atoms: C_15  and  C_16
REMARK                            x       y       z     vdW  Elec       q    Type
REMARK                         _______ _______ _______ _____ _____    ______ ____
ROOT
ATOM      1  C   UNL     1       2.773  -0.827   3.676  0.00  0.00    +0.000 C 
ATOM      2  C   UNL     1       1.532   0.027   3.636  0.00  0.00    +0.000 A 
ATOM      3  C   UNL     1       0.940   0.436   4.820  0.00  0.00    +0.000 A 
ATOM      4  C   UNL     1      -0.196   1.217   4.796  0.00  0.00    +0.000 A 
ATOM      5  C   UNL     1      -0.752   1.598   3.572  0.00  0.00    +0.000 A 
ATOM      6  C   UNL     1      -0.150   1.183   2.377  0.00  0.00    +0.000 A 
ATOM      7  C   UNL     1       0.990   0.393   2.421  0.00  0.00    +0.000 A 
ENDROOT
BRANCH   5   8
ATOM      8  C   UNL     1      -1.968   2.434   3.539  0.00  0.00    +0.000 C 
ATOM      9  O   UNL     1      -2.449   2.765   2.473  0.00  0.00    +0.000 OA
ATOM     10  N   UNL     1      -2.544   2.832   4.691  0.00  0.00    +0.000 N 
ATOM     11  H   UNL     1      -2.136   2.552   5.594  0.00  0.00    +0.000 HD
ATOM     12  H   UNL     1      -3.393   3.415   4.667  0.00  0.00    +0.000 HD
ENDBRANCH   5   8
BRANCH   6  13
ATOM     13  O   UNL     1      -0.682   1.547   1.184  0.00  0.00    +0.000 OA
BRANCH  13  14
ATOM     14  C   UNL     1      -0.013   1.086   0.008  0.00  0.00    +0.000 C 
BRANCH  14  15
ATOM     15  C   UNL     1      -0.742   1.585  -1.213  0.00  0.00    +0.000 C 
ATOM     16  O   UNL     1      -1.736   2.268  -1.088  0.00  0.00    +0.000 OA
ATOM     17  N   UNL     1      -0.288   1.272  -2.443  0.00  0.00    +0.000 N 
ATOM     18  C   UNL     1       0.913   0.447  -2.593  0.00  0.00    +0.000 C 
BRANCH  17  19
ATOM     19  C   UNL     1      -0.997   1.758  -3.630  0.00  0.00    +0.000 C 
BRANCH  19  20
ATOM     20  C   UNL     1      -0.427   3.116  -4.045  0.00  0.00    +0.000 C 
BRANCH  20  21
ATOM     21  C   UNL     1      -1.139   3.603  -5.237  0.00  0.00    +0.000 C 
ATOM     22  N   UNL     1      -1.688   3.979  -6.157  0.00  0.00    +0.000 NA
ENDBRANCH  20  21
ENDBRANCH  19  20
ENDBRANCH  17  19
ENDBRANCH  14  15
ENDBRANCH  13  14
ENDBRANCH   6  13
TORSDOF 7
ENDMDL
MODEL     1072
REMARK  Name = ZINC31944609
REMARK  7 active torsions:
REMARK  status: ('A' for Active; 'I' for Inactive)
REMARK    1  A    between atoms: C_1  and  C_2
REMARK    2  A    between atoms: C_5  and  N_8
REMARK    3  A    between atoms: C_9  and  C_11
REMARK    4  A    between atoms: C_11  and  S_12
REMARK    5  A    between atoms: S_12  and  C_15
REMARK    6  A    between atoms: C_15  and  C_16
REMARK    7  A    between atoms: C_16  and  N_18
REMARK                            x       y       z     vdW  Elec       q    Type
REMARK                         _______ _______ _______ _____ _____    ______ ____
ROOT
ATOM      1  N   UNL     1      -0.011   0.966   0.007  0.00  0.00    +0.000 N 
ATOM      2  C   UNL     1       1.050   1.777  -0.174  0.00  0.00    +0.000 C 
ATOM      3  O   UNL     1       0.879   2.953  -0.417  0.00  0.00    +0.000 OA
ATOM      4  H   UNL     1       0.131  -0.046   0.136  0.00  0.00    +0.000 HD
ENDROOT
BRANCH   1   9
ATOM      5  C   UNL     1      -5.256   3.126   0.068  0.00  0.00    +0.000 C 
ATOM      6  C   UNL     1      -3.863   2.552   0.052  0.00  0.00    +0.000 A 
ATOM      7  C   UNL     1      -3.645   1.284  -0.456  0.00  0.00    +0.000 A 
ATOM      8  C   UNL     1      -2.369   0.756  -0.472  0.00  0.00    +0.000 A 
ATOM      9  C   UNL     1      -1.305   1.499   0.022  0.00  0.00    +0.000 A 
ATOM     10  C   UNL     1      -1.528   2.769   0.536  0.00  0.00    +0.000 A 
ATOM     11  C   UNL     1      -2.806   3.294   0.544  0.00  0.00    +0.000 A 
ENDBRANCH   1   9
BRANCH   2  12
ATOM     12  C   UNL     1       2.448   1.223  -0.076  0.00  0.00    +0.000 C 
BRANCH  12  13
ATOM     13  S   UNL     1       3.647   2.552  -0.367  0.00  0.00    +0.000 S 
ATOM     14  O   UNL     1       3.507   2.997  -1.710  0.00  0.00    +0.000 OA
ATOM     15  O   UNL     1       3.537   3.496   0.689  0.00  0.00    +0.000 OA
BRANCH  13  16
ATOM     16  C   UNL     1       5.239   1.697  -0.209  0.00  0.00    +0.000 C 
BRANCH  16  17
ATOM     17  C   UNL     1       6.361   2.680  -0.427  0.00  0.00    +0.000 C 
ATOM     18  S   UNL     1       6.031   4.213  -0.742  0.00  0.00    +0.000 S 
BRANCH  17  19
ATOM     19  N   UNL     1       7.642   2.267  -0.357  0.00  0.00    +0.000 N 
ATOM     20  H   UNL     1       7.854   1.280  -0.154  0.00  0.00    +0.000 HD
ATOM     21  H   UNL     1       8.408   2.938  -0.506  0.00  0.00    +0.000 HD
ENDBRANCH  17  19
ENDBRANCH  16  17
ENDBRANCH  13  16
ENDBRANCH  12  13
ENDBRANCH   2  12
TORSDOF 6
ENDMDL
MODEL     1073
REMARK  Name = ZINC17745631
REMARK  6 active torsions:
REMARK  status: ('A' for Active; 'I' for Inactive)
REMARK    1  A    between atoms: C_10  and  C_12
REMARK    2  A    between atoms: C_12  and  O_13
REMARK    3  A    between atoms: O_13  and  C_14
REMARK    4  A    between atoms: C_14  and  C_16
REMARK    5  A    between atoms: C_16  and  C_17
REMARK    6  A    between atoms: C_17  and  N_18
REMARK                            x       y       z     vdW  Elec       q    Type
REMARK                         _______ _______ _______ _____ _____    ______ ____
ROOT
ATOM      1  C   UNL     1      -1.217   1.905   3.587  0.00  0.00    +0.000 C 
ENDROOT
BRANCH   1  11
ATOM      2  C   UNL     1      -3.926   3.729  -0.423  0.00  0.00    +0.000 A 
ATOM      3  C   UNL     1      -3.838   3.671   0.956  0.00  0.00    +0.000 A 
ATOM      4  C   UNL     1      -2.810   2.976   1.556  0.00  0.00    +0.000 A 
ATOM      5  C   UNL     1      -1.849   2.327   0.777  0.00  0.00    +0.000 A 
ATOM      6  C   UNL     1      -1.947   2.393  -0.603  0.00  0.00    +0.000 A 
ATOM      7  C   UNL     1      -2.979   3.090  -1.201  0.00  0.00    +0.000 A 
ATOM      8  C   UNL     1      -0.797   1.615  -1.204  0.00  0.00    +0.000 C 
ATOM      9  C   UNL     1      -0.013   1.086   0.008  0.00  0.00    +0.000 C 
ATOM     10  N   UNL     1      -0.738   1.578   1.182  0.00  0.00    +0.000 N 
ATOM     11  C   UNL     1      -0.387   1.342   2.462  0.00  0.00    +0.000 C 
ATOM     12  O   UNL     1       0.597   0.677   2.708  0.00  0.00    +0.000 OA
ENDBRANCH   1  11
BRANCH   1  13
ATOM     13  O   UNL     1      -0.636   1.514   4.859  0.00  0.00    +0.000 OA
BRANCH  13  14
ATOM     14  C   UNL     1      -1.260   1.938   5.970  0.00  0.00    +0.000 C 
ATOM     15  O   UNL     1      -2.258   2.613   5.881  0.00  0.00    +0.000 OA
BRANCH  14  16
ATOM     16  C   UNL     1      -0.716   1.572   7.326  0.00  0.00    +0.000 C 
BRANCH  16  17
ATOM     17  C   UNL     1      -1.607   2.176   8.414  0.00  0.00    +0.000 C 
BRANCH  17  18
ATOM     18  N   UNL     1      -1.077   1.820   9.732  0.00  0.00    +0.000 N 
ATOM     19  C   UNL     1      -1.704   2.245  10.847  0.00  0.00    +0.000 C 
ATOM     20  O   UNL     1      -2.708   2.924  10.758  0.00  0.00    +0.000 OA
ATOM     21  N   UNL     1      -1.217   1.917  12.060  0.00  0.00    +0.000 N 
ATOM     22  H   UNL     1      -0.226   1.244   9.807  0.00  0.00    +0.000 HD
ATOM     23  H   UNL     1      -0.365   1.342  12.136  0.00  0.00    +0.000 HD
ATOM     24  H   UNL     1      -1.695   2.242  12.913  0.00  0.00    +0.000 HD
ENDBRANCH  17  18
ENDBRANCH  16  17
ENDBRANCH  14  16
ENDBRANCH  13  14
ENDBRANCH   1  13
TORSDOF 6
ENDMDL
MODEL     1074
REMARK  Name = ZINC20843205
REMARK  9 active torsions:
REMARK  status: ('A' for Active; 'I' for Inactive)
REMARK    1  A    between atoms: C_1  and  C_2
REMARK    2  A    between atoms: C_2  and  C_3
REMARK    3  A    between atoms: C_6  and  S_9
REMARK    4  A    between atoms: N_7  and  N_8
REMARK    5  A    between atoms: S_9  and  C_10
REMARK    6  A    between atoms: C_10  and  C_11
REMARK    7  A    between atoms: C_14  and  C_16
REMARK    8  A    between atoms: C_16  and  O_17
REMARK    9  A    between atoms: O_17  and  C_18
REMARK                            x       y       z     vdW  Elec       q    Type
REMARK                         _______ _______ _______ _____ _____    ______ ____
ROOT
ATOM      1  C   UNL     1       3.222   7.423  -1.669  0.00  0.00    +0.000 A 
ATOM      2  N   UNL     1       3.139   7.141  -0.400  0.00  0.00    +0.000 NA
ATOM      3  N   UNL     1       2.723   5.936  -0.241  0.00  0.00    +0.000 NA
ATOM      4  C   UNL     1       2.516   5.378  -1.412  0.00  0.00    +0.000 A 
ATOM      5  N   UNL     1       2.834   6.308  -2.359  0.00  0.00    +0.000 N 
ENDROOT
BRANCH   5   6
ATOM      6  N   UNL     1       2.774   6.157  -3.716  0.00  0.00    +0.000 N 
ATOM      7  H   UNL     1       3.056   6.986  -4.258  0.00  0.00    +0.000 HD
ATOM      8  H   UNL     1       2.472   5.289  -4.180  0.00  0.00    +0.000 HD
ENDBRANCH   5   6
BRANCH   1  10
ATOM      9  C   UNL     1       5.184   8.702  -2.484  0.00  0.00    +0.000 C 
ATOM     10  C   UNL     1       3.670   8.732  -2.266  0.00  0.00    +0.000 C 
ENDBRANCH   1  10
BRANCH   4  11
ATOM     11  S   UNL     1       1.944   3.737  -1.704  0.00  0.00    +0.000 S 
BRANCH  11  12
ATOM     12  C   UNL     1       1.762   3.159   0.002  0.00  0.00    +0.000 C 
BRANCH  12  13
ATOM     13  C   UNL     1       1.268   1.736  -0.001  0.00  0.00    +0.000 A 
ATOM     14  N   UNL     1       2.007   0.663  -0.013  0.00  0.00    +0.000 NA
ATOM     15  N   UNL     1       1.250  -0.378  -0.012  0.00  0.00    +0.000 NA
ATOM     16  C   UNL     1       0.002  -0.004   0.002  0.00  0.00    +0.000 A 
ATOM     17  O   UNL     1      -0.016   1.339   0.009  0.00  0.00    +0.000 OA
BRANCH  16  18
ATOM     18  C   UNL     1      -1.200  -0.912   0.009  0.00  0.00    +0.000 C 
BRANCH  18  19
ATOM     19  O   UNL     1      -1.567  -1.207   1.359  0.00  0.00    +0.000 OA
ATOM     20  C   UNL     1      -2.703  -2.066   1.479  0.00  0.00    +0.000 C 
ENDBRANCH  18  19
ENDBRANCH  16  18
ENDBRANCH  12  13
ENDBRANCH  11  12
ENDBRANCH   4  11
TORSDOF 7
ENDMDL
MODEL     1075
REMARK  Name = ZINC27341706
REMARK  8 active torsions:
REMARK  status: ('A' for Active; 'I' for Inactive)
REMARK    1  A    between atoms: C_1  and  N_2
REMARK    2  A    between atoms: C_3  and  C_5
REMARK    3  A    between atoms: C_5  and  N_6
REMARK    4  A    between atoms: N_9  and  C_10
REMARK    5  A    between atoms: C_10  and  C_11
REMARK    6  A    between atoms: C_14  and  C_17
REMARK    7  A    between atoms: C_17  and  O_19
REMARK    8  A    between atoms: O_19  and  C_20
REMARK                            x       y       z     vdW  Elec       q    Type
REMARK                         _______ _______ _______ _____ _____    ______ ____
ROOT
ATOM      1  N   UNL     1       1.178  -0.662  -0.013  0.00  0.00    +0.000 N 
ATOM      2  C   UNL     1       0.002  -0.004   0.002  0.00  0.00    +0.000 C 
ATOM      3  O   UNL     1      -1.042  -0.626   0.009  0.00  0.00    +0.000 OA
ATOM      4  N   UNL     1      -0.016   1.344   0.009  0.00  0.00    +0.000 N 
ATOM      5  H   UNL     1       2.063  -0.135  -0.018  0.00  0.00    +0.000 HD
ATOM      6  H   UNL     1       0.869   1.871   0.008  0.00  0.00    +0.000 HD
ENDROOT
BRANCH   1   7
ATOM      7  C   UNL     1       1.198  -2.127  -0.021  0.00  0.00    +0.000 C 
BRANCH   7  10
ATOM      8  C   UNL     1       4.277  -4.401  -0.062  0.00  0.00    +0.000 C 
ATOM      9  N   UNL     1       2.890  -3.931  -0.047  0.00  0.00    +0.000 N 
ATOM     10  C   UNL     1       2.626  -2.610  -0.037  0.00  0.00    +0.000 C 
ATOM     11  O   UNL     1       3.537  -1.809  -0.041  0.00  0.00    +0.000 OA
ATOM     12  H   UNL     1       2.116  -4.611  -0.043  0.00  0.00    +0.000 HD
ENDBRANCH   7  10
ENDBRANCH   1   7
BRANCH   4  13
ATOM     13  C   UNL     1      -1.295   2.059   0.019  0.00  0.00    +0.000 C 
BRANCH  13  14
ATOM     14  C   UNL     1      -1.040   3.544   0.026  0.00  0.00    +0.000 A 
ATOM     15  C   UNL     1      -0.923   4.217   1.230  0.00  0.00    +0.000 A 
ATOM     16  C   UNL     1      -0.684   5.576   1.243  0.00  0.00    +0.000 A 
ATOM     17  C   UNL     1      -0.571   6.273   0.039  0.00  0.00    +0.000 A 
ATOM     18  C   UNL     1      -0.695   5.589  -1.172  0.00  0.00    +0.000 A 
ATOM     19  C   UNL     1      -0.928   4.229  -1.171  0.00  0.00    +0.000 A 
BRANCH  17  20
ATOM     20  C   UNL     1      -0.321   7.729   0.046  0.00  0.00    +0.000 C 
ATOM     21  O   UNL     1      -0.223   8.334  -1.004  0.00  0.00    +0.000 OA
BRANCH  20  22
ATOM     22  O   UNL     1      -0.202   8.387   1.215  0.00  0.00    +0.000 OA
ATOM     23  C   UNL     1       0.043   9.816   1.146  0.00  0.00    +0.000 C 
ENDBRANCH  20  22
ENDBRANCH  17  20
ENDBRANCH  13  14
ENDBRANCH   4  13
TORSDOF 6
ENDMDL
MODEL     1076
REMARK  Name = ZINC07149658
REMARK  9 active torsions:
REMARK  status: ('A' for Active; 'I' for Inactive)
REMARK    1  A    between atoms: C_1  and  C_2
REMARK    2  A    between atoms: C_2  and  O_3
REMARK    3  A    between atoms: O_3  and  C_4
REMARK    4  A    between atoms: C_4  and  C_6
REMARK    5  A    between atoms: C_8  and  C_18
REMARK    6  A    between atoms: C_9  and  S_13
REMARK    7  A    between atoms: C_11  and  C_12
REMARK    8  A    between atoms: S_13  and  C_14
REMARK    9  A    between atoms: C_14  and  C_15
REMARK                            x       y       z     vdW  Elec       q    Type
REMARK                         _______ _______ _______ _____ _____    ______ ____
ROOT
ATOM      1  C   UNL     1       0.888  -2.090  -1.033  0.00  0.00    +0.000 A 
ATOM      2  C   UNL     1       0.422  -2.874   0.030  0.00  0.00    +0.000 A 
ATOM      3  C   UNL     1       0.260  -4.243  -0.181  0.00  0.00    +0.000 A 
ATOM      4  C   UNL     1       0.582  -4.780  -1.443  0.00  0.00    +0.000 A 
ATOM      5  N   UNL     1       1.026  -3.999  -2.418  0.00  0.00    +0.000 NA
ATOM      6  C   UNL     1       1.184  -2.704  -2.255  0.00  0.00    +0.000 A 
ATOM      7  C   UNL     1       1.692  -1.867  -3.401  0.00  0.00    +0.000 C 
ENDROOT
BRANCH   1   8
ATOM      8  C   UNL     1       1.071  -0.637  -0.864  0.00  0.00    +0.000 C 
ATOM      9  O   UNL     1       1.582   0.018  -1.751  0.00  0.00    +0.000 OA
BRANCH   8  10
ATOM     10  O   UNL     1       0.671  -0.035   0.273  0.00  0.00    +0.000 OA
BRANCH  10  12
ATOM     11  C   UNL     1       0.369   1.899   1.721  0.00  0.00    +0.000 C 
ATOM     12  C   UNL     1       0.882   1.398   0.370  0.00  0.00    +0.000 C 
ENDBRANCH  10  12
ENDBRANCH   8  10
ENDBRANCH   1   8
BRANCH   3  13
ATOM     13  C   UNL     1      -0.219  -5.089   0.870  0.00  0.00    +0.000 C 
ATOM     14  N   UNL     1      -0.599  -5.761   1.704  0.00  0.00    +0.000 NA
ENDBRANCH   3  13
BRANCH   4  15
ATOM     15  S   UNL     1       0.392  -6.509  -1.729  0.00  0.00    +0.000 S 
BRANCH  15  16
ATOM     16  C   UNL     1       0.935  -6.604  -3.453  0.00  0.00    +0.000 C 
BRANCH  16  17
ATOM     17  C   UNL     1       0.855  -8.032  -3.926  0.00  0.00    +0.000 C 
ATOM     18  O   UNL     1       0.469  -8.900  -3.172  0.00  0.00    +0.000 OA
ATOM     19  N   UNL     1       1.213  -8.345  -5.187  0.00  0.00    +0.000 N 
ATOM     20  H   UNL     1       1.541  -7.608  -5.828  0.00  0.00    +0.000 HD
ATOM     21  H   UNL     1       1.158  -9.322  -5.511  0.00  0.00    +0.000 HD
ENDBRANCH  16  17
ENDBRANCH  15  16
ENDBRANCH   4  15
TORSDOF 7
ENDMDL
MODEL     1077
REMARK  Name = ZINC31164142
REMARK  10 active torsions:
REMARK  status: ('A' for Active; 'I' for Inactive)
REMARK    1  A    between atoms: C_1  and  C_2
REMARK    2  A    between atoms: C_2  and  C_3
REMARK    3  A    between atoms: C_3  and  C_4
REMARK    4  A    between atoms: C_3  and  C_5
REMARK    5  A    between atoms: C_3  and  O_20
REMARK    6  A    between atoms: C_5  and  C_6
REMARK    7  A    between atoms: C_5  and  O_19
REMARK    8  A    between atoms: C_6  and  O_8
REMARK    9  A    between atoms: O_8  and  C_9
REMARK   10  A    between atoms: C_9  and  C_10
REMARK                            x       y       z     vdW  Elec       q    Type
REMARK                         _______ _______ _______ _____ _____    ______ ____
ROOT
ATOM      1  C   UNL     1      -0.723   1.911   1.250  0.00  0.00    +0.000 C 
ATOM      2  O   UNL     1      -1.242   1.118   1.999  0.00  0.00    +0.000 OA
ENDROOT
BRANCH   1   3
ATOM      3  C   UNL     1      -0.017   1.425   0.010  0.00  0.00    +0.000 C 
BRANCH   3   4
ATOM      4  C   UNL     1      -0.757   1.932  -1.230  0.00  0.00    +0.000 C 
ATOM      5  C   UNL     1      -0.778   3.462  -1.221  0.00  0.00    +0.000 C 
BRANCH   4   6
ATOM      6  O   UNL     1      -2.098   1.437  -1.220  0.00  0.00    +0.000 OA
ATOM      7  H   UNL     1      -2.086   0.447  -1.225  0.00  0.00    +0.000 HD
ENDBRANCH   4   6
BRANCH   4   9
ATOM      8  C   UNL     1      -0.706   2.046  -3.725  0.00  0.00    +0.000 C 
ATOM      9  C   UNL     1      -0.041   1.438  -2.489  0.00  0.00    +0.000 C 
ENDBRANCH   4   9
ENDBRANCH   3   4
BRANCH   3  10
ATOM     10  O   UNL     1       0.002  -0.004   0.002  0.00  0.00    +0.000 OA
ATOM     11  H   UNL     1       0.466  -0.324  -0.812  0.00  0.00    +0.000 HD
ENDBRANCH   3  10
ENDBRANCH   1   3
BRANCH   1  12
ATOM     12  O   UNL     1      -0.774   3.224   1.522  0.00  0.00    +0.000 OA
BRANCH  12  13
ATOM     13  C   UNL     1      -1.470   3.620   2.733  0.00  0.00    +0.000 C 
BRANCH  13  14
ATOM     14  C   UNL     1      -1.423   5.143   2.873  0.00  0.00    +0.000 C 
ATOM     15  C   UNL     1       0.021   5.623   3.174  0.00  0.00    +0.000 C 
ATOM     16  C   UNL     1      -0.240   6.960   3.910  0.00  0.00    +0.000 C 
ATOM     17  N   UNL     1      -1.450   6.718   4.726  0.00  0.00    +0.000 NA
ATOM     18  O   UNL     1      -1.078   6.393   6.103  0.00  0.00    +0.000 OA
ATOM     19  C   UNL     1      -2.209   5.600   4.118  0.00  0.00    +0.000 C 
ATOM     20  C   UNL     1      -3.578   6.157   3.679  0.00  0.00    +0.000 C 
ATOM     21  C   UNL     1      -3.756   7.400   4.590  0.00  0.00    +0.000 C 
ATOM     22  C   UNL     1      -2.295   7.932   4.695  0.00  0.00    +0.000 C 
ENDBRANCH  13  14
ENDBRANCH  12  13
ENDBRANCH   1  12
TORSDOF 8
ENDMDL
MODEL     1078
REMARK  Name = ZINC16421811
REMARK  7 active torsions:
REMARK  status: ('A' for Active; 'I' for Inactive)
REMARK    1  A    between atoms: C_1  and  N_19
REMARK    2  A    between atoms: C_2  and  C_3
REMARK    3  A    between atoms: C_2  and  N_19
REMARK    4  A    between atoms: C_3  and  O_4
REMARK    5  A    between atoms: O_4  and  C_5
REMARK    6  A    between atoms: C_12  and  C_13
REMARK    7  A    between atoms: C_12  and  N_19
REMARK                            x       y       z     vdW  Elec       q    Type
REMARK                         _______ _______ _______ _____ _____    ______ ____
ROOT
ATOM      1  C   UNL     1      -5.592  -1.171   1.054  0.00  0.00    +0.000 C 
ATOM      2  N   UNL     1      -4.725   0.013   1.227  0.00  0.00    +0.000 NA
ENDROOT
BRANCH   2   3
ATOM      3  C   UNL     1      -4.802   0.876   0.030  0.00  0.00    +0.000 C 
BRANCH   3   4
ATOM      4  C   UNL     1      -3.589   1.809   0.018  0.00  0.00    +0.000 C 
BRANCH   4   5
ATOM      5  O   UNL     1      -2.395   1.036  -0.118  0.00  0.00    +0.000 OA
BRANCH   5   6
ATOM      6  C   UNL     1      -1.219   1.716  -0.146  0.00  0.00    +0.000 A 
ATOM      7  C   UNL     1      -0.021   1.028  -0.277  0.00  0.00    +0.000 A 
ATOM      8  C   UNL     1       1.173   1.722  -0.310  0.00  0.00    +0.000 A 
ATOM      9  C   UNL     1       1.176   3.101  -0.209  0.00  0.00    +0.000 A 
ATOM     10  C   UNL     1      -0.017   3.790  -0.073  0.00  0.00    +0.000 A 
ATOM     11  C   UNL     1      -1.214   3.099  -0.038  0.00  0.00    +0.000 A 
ATOM     12 CL   UNL     1      -0.010   5.521   0.054  0.00  0.00    +0.000 Cl
ENDBRANCH   5   6
ENDBRANCH   4   5
ENDBRANCH   3   4
ENDBRANCH   2   3
BRANCH   2  13
ATOM     13  C   UNL     1      -5.141   0.773   2.425  0.00  0.00    +0.000 C 
BRANCH  13  14
ATOM     14  C   UNL     1      -4.845  -0.052   3.651  0.00  0.00    +0.000 C 
ATOM     15  O   UNL     1      -4.358  -1.156   3.536  0.00  0.00    +0.000 OA
ATOM     16  N   UNL     1      -5.121   0.439   4.876  0.00  0.00    +0.000 N 
ATOM     17  C   UNL     1      -4.856  -0.299   5.972  0.00  0.00    +0.000 C 
ATOM     18  O   UNL     1      -4.368  -1.406   5.857  0.00  0.00    +0.000 OA
ATOM     19  N   UNL     1      -5.132   0.191   7.197  0.00  0.00    +0.000 N 
ATOM     20  H   UNL     1      -5.534   1.377   4.974  0.00  0.00    +0.000 HD
ATOM     21  H   UNL     1      -5.546   1.129   7.295  0.00  0.00    +0.000 HD
ATOM     22  H   UNL     1      -4.930  -0.373   8.035  0.00  0.00    +0.000 HD
ENDBRANCH  13  14
ENDBRANCH   2  13
TORSDOF 6
ENDMDL
MODEL     1079
REMARK  Name = ZINC23268551
REMARK  9 active torsions:
REMARK  status: ('A' for Active; 'I' for Inactive)
REMARK    1  A    between atoms: C_1  and  C_2
REMARK    2  A    between atoms: C_2  and  C_3
REMARK    3  A    between atoms: C_2  and  C_4
REMARK    4  A    between atoms: C_4  and  N_5
REMARK    5  A    between atoms: C_6  and  C_8
REMARK    6  A    between atoms: C_8  and  N_9
REMARK    7  A    between atoms: N_12  and  C_15
REMARK    8  A    between atoms: C_15  and  C_16
REMARK    9  A    between atoms: C_15  and  C_17
REMARK                            x       y       z     vdW  Elec       q    Type
REMARK                         _______ _______ _______ _____ _____    ______ ____
ROOT
ATOM      1  N   UNL     1      -4.847   4.343   0.126  0.00  0.00    +0.000 NA
ATOM      2  C   UNL     1      -5.062   3.291   1.129  0.00  0.00    +0.000 C 
ATOM      3  C   UNL     1      -3.849   2.358   1.155  0.00  0.00    +0.000 C 
ATOM      4  N   UNL     1      -3.653   1.776  -0.181  0.00  0.00    +0.000 NA
ATOM      5  C   UNL     1      -3.438   2.828  -1.184  0.00  0.00    +0.000 C 
ATOM      6  C   UNL     1      -4.651   3.761  -1.209  0.00  0.00    +0.000 C 
ENDROOT
BRANCH   4   7
ATOM      7  C   UNL     1      -2.542   0.815  -0.179  0.00  0.00    +0.000 C 
ATOM      8  C   UNL     1      -2.449   0.141  -1.549  0.00  0.00    +0.000 C 
BRANCH   7   9
ATOM      9  C   UNL     1      -1.253   1.539   0.114  0.00  0.00    +0.000 C 
ATOM     10  O   UNL     1      -1.259   2.737   0.302  0.00  0.00    +0.000 OA
ATOM     11  N   UNL     1      -0.093   0.854   0.166  0.00  0.00    +0.000 N 
ATOM     12  H   UNL     1      -0.088  -0.163   0.006  0.00  0.00    +0.000 HD
ATOM     13  H   UNL     1       0.788   1.349   0.366  0.00  0.00    +0.000 HD
ENDBRANCH   7   9
ENDBRANCH   4   7
BRANCH   1  14
ATOM     14  C   UNL     1      -5.958   5.304   0.124  0.00  0.00    +0.000 C 
BRANCH  14  16
ATOM     15  N   UNL     1      -6.981   6.907   1.705  0.00  0.00    +0.000 N 
ATOM     16  C   UNL     1      -5.971   6.059   1.428  0.00  0.00    +0.000 C 
ATOM     17  O   UNL     1      -5.073   5.903   2.228  0.00  0.00    +0.000 OA
ATOM     18  H   UNL     1      -7.744   7.040   1.026  0.00  0.00    +0.000 HD
BRANCH  15  19
ATOM     19  C   UNL     1      -6.994   7.641   2.973  0.00  0.00    +0.000 C 
BRANCH  19  21
ATOM     20  C   UNL     1      -9.491   7.648   3.065  0.00  0.00    +0.000 C 
ATOM     21  C   UNL     1      -8.239   8.528   3.036  0.00  0.00    +0.000 C 
ATOM     22  C   UNL     1      -8.190   9.386   4.302  0.00  0.00    +0.000 C 
ENDBRANCH  19  21
ENDBRANCH  15  19
ENDBRANCH  14  16
ENDBRANCH   1  14
TORSDOF 6
ENDMDL
MODEL     1080
REMARK  Name = ZINC20506062
REMARK  7 active torsions:
REMARK  status: ('A' for Active; 'I' for Inactive)
REMARK    1  A    between atoms: C_3  and  S_9
REMARK    2  A    between atoms: C_4  and  N_8
REMARK    3  A    between atoms: S_9  and  N_12
REMARK    4  A    between atoms: N_12  and  C_13
REMARK    5  A    between atoms: C_13  and  C_14
REMARK    6  A    between atoms: C_14  and  C_15
REMARK    7  A    between atoms: C_15  and  N_16
REMARK                            x       y       z     vdW  Elec       q    Type
REMARK                         _______ _______ _______ _____ _____    ______ ____
ROOT
ATOM      1  S   UNL     1      -0.879   1.058  -3.940  0.00  0.00    +0.000 S 
ATOM      2  O   UNL     1      -0.092   0.459  -4.960  0.00  0.00    +0.000 OA
ATOM      3  O   UNL     1      -2.152   0.552  -3.563  0.00  0.00    +0.000 OA
ENDROOT
BRANCH   1   6
ATOM      4  C   UNL     1      -2.592   4.595  -4.780  0.00  0.00    +0.000 A 
ATOM      5  C   UNL     1      -2.397   3.277  -4.407  0.00  0.00    +0.000 A 
ATOM      6  C   UNL     1      -1.126   2.737  -4.416  0.00  0.00    +0.000 A 
ATOM      7  C   UNL     1      -0.042   3.518  -4.795  0.00  0.00    +0.000 A 
ATOM      8  C   UNL     1      -0.240   4.839  -5.175  0.00  0.00    +0.000 A 
ATOM      9  C   UNL     1      -1.515   5.376  -5.164  0.00  0.00    +0.000 A 
ATOM     10  F   UNL     1      -1.710   6.662  -5.528  0.00  0.00    +0.000 F 
BRANCH   7  11
ATOM     11  N   UNL     1       1.245   2.975  -4.800  0.00  0.00    +0.000 N 
ATOM     12  H   UNL     1       1.390   1.994  -4.521  0.00  0.00    +0.000 HD
ATOM     13  H   UNL     1       2.048   3.555  -5.081  0.00  0.00    +0.000 HD
ENDBRANCH   7  11
ENDBRANCH   1   6
BRANCH   1  14
ATOM     14  N   UNL     1       0.051   1.070  -2.570  0.00  0.00    +0.000 NA
ATOM     15  H   UNL     1       0.997   0.663  -2.586  0.00  0.00    +0.000 HD
BRANCH  14  16
ATOM     16  C   UNL     1      -0.472   1.659  -1.334  0.00  0.00    +0.000 C 
BRANCH  16  17
ATOM     17  C   UNL     1       0.391   1.213  -0.152  0.00  0.00    +0.000 C 
BRANCH  17  18
ATOM     18  C   UNL     1      -0.156   1.828   1.138  0.00  0.00    +0.000 C 
BRANCH  18  19
ATOM     19  N   UNL     1       0.671   1.401   2.270  0.00  0.00    +0.000 N 
ATOM     20  C   UNL     1       0.476   0.290   3.045  0.00  0.00    +0.000 A 
ATOM     21  C   UNL     1       1.461   0.277   3.963  0.00  0.00    +0.000 A 
ATOM     22  N   UNL     1       2.231   1.356   3.761  0.00  0.00    +0.000 NA
ATOM     23  C   UNL     1       1.763   2.034   2.748  0.00  0.00    +0.000 A 
ENDBRANCH  18  19
ENDBRANCH  17  18
ENDBRANCH  16  17
ENDBRANCH  14  16
ENDBRANCH   1  14
TORSDOF 7
ENDMDL
MODEL     1081
REMARK  Name = ZINC31904738
REMARK  10 active torsions:
REMARK  status: ('A' for Active; 'I' for Inactive)
REMARK    1  A    between atoms: C_1  and  C_2
REMARK    2  A    between atoms: N_4  and  C_15
REMARK    3  A    between atoms: N_7  and  C_10
REMARK    4  A    between atoms: C_10  and  C_11
REMARK    5  A    between atoms: C_11  and  C_12
REMARK    6  A    between atoms: C_12  and  C_13
REMARK    7  A    between atoms: C_13  and  O_14
REMARK    8  A    between atoms: C_17  and  N_22
REMARK    9  A    between atoms: C_18  and  C_20
REMARK   10  A    between atoms: C_20  and  O_21
REMARK                            x       y       z     vdW  Elec       q    Type
REMARK                         _______ _______ _______ _____ _____    ______ ____
ROOT
ATOM      1  C   UNL     1      -1.287  -0.785   0.011  0.00  0.00    +0.000 C 
ATOM      2  C   UNL     1       0.002  -0.004   0.002  0.00  0.00    +0.000 A 
ATOM      3  C   UNL     1      -0.016   1.346   0.009  0.00  0.00    +0.000 A 
ATOM      4  N   UNL     1       1.163   2.040   0.002  0.00  0.00    +0.000 N 
ATOM      5  C   UNL     1       2.341   1.389  -0.012  0.00  0.00    +0.000 A 
ATOM      6  O   UNL     1       3.377   2.025  -0.018  0.00  0.00    +0.000 OA
ATOM      7  N   UNL     1       2.388   0.044  -0.021  0.00  0.00    +0.000 N 
ATOM      8  C   UNL     1       1.248  -0.676  -0.013  0.00  0.00    +0.000 A 
ATOM      9  O   UNL     1       1.290  -1.893  -0.020  0.00  0.00    +0.000 OA
ENDROOT
BRANCH   4  10
ATOM     10  C   UNL     1       1.143   3.505   0.010  0.00  0.00    +0.000 C 
ATOM     11  C   UNL     1       0.402   4.025  -1.240  0.00  0.00    +0.000 C 
ATOM     12  C   UNL     1       1.260   5.258  -1.640  0.00  0.00    +0.000 C 
ATOM     13  C   UNL     1       2.676   4.777  -1.236  0.00  0.00    +0.000 C 
ATOM     14  O   UNL     1       2.483   4.009  -0.037  0.00  0.00    +0.000 OA
BRANCH  12  15
ATOM     15  N   UNL     1       1.180   5.513  -3.081  0.00  0.00    +0.000 NA
ATOM     16  N   UNL     1       0.244   5.949  -3.523  0.00  0.00    +0.000 NA
ATOM     17  N   UNL     1      -0.693   6.385  -3.966  0.00  0.00    +0.000 NA
ENDBRANCH  12  15
BRANCH  13  18
ATOM     18  C   UNL     1       3.586   5.976  -0.958  0.00  0.00    +0.000 C 
BRANCH  18  19
ATOM     19  O   UNL     1       4.899   5.513  -0.636  0.00  0.00    +0.000 OA
ATOM     20  H   UNL     1       5.262   4.994  -1.396  0.00  0.00    +0.000 HD
ENDBRANCH  18  19
ENDBRANCH  13  18
ENDBRANCH   4  10
BRANCH   7  21
ATOM     21  C   UNL     1       3.683  -0.640  -0.036  0.00  0.00    +0.000 C 
BRANCH  21  22
ATOM     22  C   UNL     1       4.120  -0.871  -1.484  0.00  0.00    +0.000 C 
BRANCH  22  23
ATOM     23  C   UNL     1       5.473  -1.586  -1.501  0.00  0.00    +0.000 C 
BRANCH  23  24
ATOM     24  C   UNL     1       5.910  -1.816  -2.949  0.00  0.00    +0.000 C 
BRANCH  24  25
ATOM     25  O   UNL     1       7.174  -2.484  -2.965  0.00  0.00    +0.000 OA
ATOM     26  H   UNL     1       7.093  -3.355  -2.502  0.00  0.00    +0.000 HD
ENDBRANCH  24  25
ENDBRANCH  23  24
ENDBRANCH  22  23
ENDBRANCH  21  22
ENDBRANCH   7  21
TORSDOF 9
ENDMDL
MODEL     1082
REMARK  Name = ZINC18156445
REMARK  9 active torsions:
REMARK  status: ('A' for Active; 'I' for Inactive)
REMARK    1  A    between atoms: C_1  and  C_2
REMARK    2  A    between atoms: C_2  and  C_4
REMARK    3  A    between atoms: N_8  and  C_16
REMARK    4  A    between atoms: C_9  and  C_10
REMARK    5  A    between atoms: C_16  and  C_17
REMARK    6  A    between atoms: C_17  and  N_18
REMARK    7  A    between atoms: N_18  and  C_19
REMARK    8  A    between atoms: C_19  and  C_20
REMARK    9  A    between atoms: C_20  and  O_21
REMARK                            x       y       z     vdW  Elec       q    Type
REMARK                         _______ _______ _______ _____ _____    ______ ____
ROOT
ATOM      1  C   UNL     1      -1.099   3.231   8.026  0.00  0.00    +0.000 C 
ATOM      2  C   UNL     1      -1.843   2.107   7.875  0.00  0.00    +0.000 C 
ATOM      3  C   UNL     1      -1.320   1.331   6.729  0.00  0.00    +0.000 C 
ATOM      4  O   UNL     1      -1.773   0.274   6.338  0.00  0.00    +0.000 OA
ATOM      5  N   UNL     1      -0.269   1.970   6.183  0.00  0.00    +0.000 N 
ATOM      6  C   UNL     1      -0.041   3.201   6.948  0.00  0.00    +0.000 C 
ATOM      7  O   UNL     1      -2.893   1.753   8.648  0.00  0.00    +0.000 OA
ENDROOT
BRANCH   6   8
ATOM      8  C   UNL     1       1.333   3.179   7.567  0.00  0.00    +0.000 A 
ATOM      9  C   UNL     1       1.950   4.369   7.904  0.00  0.00    +0.000 A 
ATOM     10  C   UNL     1       3.211   4.338   8.478  0.00  0.00    +0.000 A 
ATOM     11  C   UNL     1       3.812   3.105   8.683  0.00  0.00    +0.000 A 
ATOM     12  C   UNL     1       3.136   1.957   8.317  0.00  0.00    +0.000 A 
ATOM     13  N   UNL     1       1.934   2.025   7.777  0.00  0.00    +0.000 NA
ENDBRANCH   6   8
BRANCH   1  15
ATOM     14  C   UNL     1      -2.298   4.049  10.100  0.00  0.00    +0.000 C 
ATOM     15  C   UNL     1      -1.277   4.236   9.007  0.00  0.00    +0.000 C 
ATOM     16  O   UNL     1      -0.607   5.247   8.968  0.00  0.00    +0.000 OA
ENDBRANCH   1  15
BRANCH   5  17
ATOM     17  C   UNL     1       0.513   1.514   5.032  0.00  0.00    +0.000 C 
BRANCH  17  18
ATOM     18  C   UNL     1      -0.105   2.063   3.745  0.00  0.00    +0.000 C 
BRANCH  18  19
ATOM     19  N   UNL     1       0.680   1.606   2.590  0.00  0.00    +0.000 N 
ATOM     20  H   UNL     1       1.650   1.939   2.685  0.00  0.00    +0.000 HD
ATOM     21  H   UNL     1       0.683   0.576   2.567  0.00  0.00    +0.000 HD
BRANCH  19  22
ATOM     22  C   UNL     1       0.114   2.116   1.334  0.00  0.00    +0.000 C 
BRANCH  22  23
ATOM     23  C   UNL     1       0.956   1.619   0.157  0.00  0.00    +0.000 C 
BRANCH  23  24
ATOM     24  O   UNL     1       0.856   0.197   0.067  0.00  0.00    +0.000 OA
ATOM     25  H   UNL     1      -0.089  -0.061  -0.073  0.00  0.00    +0.000 HD
ENDBRANCH  23  24
ENDBRANCH  22  23
ENDBRANCH  19  22
ENDBRANCH  18  19
ENDBRANCH  17  18
ENDBRANCH   5  17
TORSDOF 8
ENDMDL
MODEL     1083
REMARK  Name = ZINC09050447
REMARK  5 active torsions:
REMARK  status: ('A' for Active; 'I' for Inactive)
REMARK    1  A    between atoms: C_1  and  O_2
REMARK    2  A    between atoms: O_2  and  C_3
REMARK    3  A    between atoms: C_6  and  N_9
REMARK    4  A    between atoms: C_10  and  C_12
REMARK    5  A    between atoms: C_12  and  C_13
REMARK                            x       y       z     vdW  Elec       q    Type
REMARK                         _______ _______ _______ _____ _____    ______ ____
ROOT
ATOM      1  C   UNL     1       0.027   2.581   0.290  0.00  0.00    +0.000 A 
ATOM      2  C   UNL     1      -1.108   1.565   0.245  0.00  0.00    +0.000 A 
ATOM      3  O   UNL     1      -2.281   1.882   0.269  0.00  0.00    +0.000 OA
ATOM      4  N   UNL     1      -0.709   0.322   0.173  0.00  0.00    +0.000 NA
ATOM      5  C   UNL     1       0.559  -0.051   0.140  0.00  0.00    +0.000 A 
ATOM      6  S   UNL     1       1.459   1.432   0.213  0.00  0.00    +0.000 S 
ATOM      7  N   UNL     1       1.054  -1.326   0.066  0.00  0.00    +0.000 N 
ATOM      8  C   UNL     1       0.194  -2.404   0.120  0.00  0.00    +0.000 C 
ATOM      9  N   UNL     1       0.677  -3.679  -0.059  0.00  0.00    +0.000 N 
ATOM     10  N   UNL     1      -1.084  -2.144   0.347  0.00  0.00    +0.000 N 
ATOM     11  H   UNL     1       2.068  -1.480  -0.030  0.00  0.00    +0.000 HD
ATOM     12  H   UNL     1       1.681  -3.829  -0.233  0.00  0.00    +0.000 HD
ATOM     13  H   UNL     1       0.035  -4.483  -0.019  0.00  0.00    +0.000 HD
ATOM     14  H   UNL     1      -1.434  -1.185   0.479  0.00  0.00    +0.000 HD
ATOM     15  H   UNL     1      -1.746  -2.933   0.391  0.00  0.00    +0.000 HD
ENDROOT
BRANCH   1  16
ATOM     16  C   UNL     1       0.016   3.373   1.599  0.00  0.00    +0.000 C 
BRANCH  16  18
ATOM     17  N   UNL     1       1.250   5.271   2.596  0.00  0.00    +0.000 N 
ATOM     18  C   UNL     1       1.075   4.444   1.546  0.00  0.00    +0.000 C 
ATOM     19  O   UNL     1       1.771   4.561   0.560  0.00  0.00    +0.000 OA
ATOM     20  H   UNL     1       0.717   5.120   3.465  0.00  0.00    +0.000 HD
BRANCH  17  24
ATOM     21  C   UNL     1       3.946   8.441   2.328  0.00  0.00    +0.000 A 
ATOM     22  C   UNL     1       3.219   8.053   1.212  0.00  0.00    +0.000 A 
ATOM     23  C   UNL     1       2.326   7.003   1.300  0.00  0.00    +0.000 A 
ATOM     24  C   UNL     1       2.156   6.336   2.506  0.00  0.00    +0.000 A 
ATOM     25  C   UNL     1       2.880   6.728   3.624  0.00  0.00    +0.000 A 
ATOM     26  C   UNL     1       3.777   7.774   3.533  0.00  0.00    +0.000 A 
BRANCH  21  28
ATOM     27  C   UNL     1       5.540   9.820   3.428  0.00  0.00    +0.000 C 
ATOM     28  O   UNL     1       4.825   9.474   2.240  0.00  0.00    +0.000 OA
ENDBRANCH  21  28
ENDBRANCH  17  24
ENDBRANCH  16  18
ENDBRANCH   1  16
TORSDOF 4
ENDMDL
MODEL     1084
REMARK  Name = ZINC29485043
REMARK  9 active torsions:
REMARK  status: ('A' for Active; 'I' for Inactive)
REMARK    1  A    between atoms: C_1  and  N_2
REMARK    2  A    between atoms: N_2  and  C_3
REMARK    3  A    between atoms: C_10  and  C_12
REMARK    4  A    between atoms: C_12  and  S_13
REMARK    5  A    between atoms: S_13  and  C_14
REMARK    6  A    between atoms: N_15  and  C_16
REMARK    7  A    between atoms: C_16  and  C_17
REMARK    8  A    between atoms: C_17  and  O_18
REMARK    9  A    between atoms: O_18  and  C_19
REMARK                            x       y       z     vdW  Elec       q    Type
REMARK                         _______ _______ _______ _____ _____    ______ ____
ROOT
ATOM      1  C   UNL     1       1.194  -2.978   3.430  0.00  0.00    +0.000 C 
ENDROOT
BRANCH   1   4
ATOM      2  C   UNL     1       3.854  -2.017   3.604  0.00  0.00    +0.000 C 
ATOM      3  N   UNL     1       3.314  -2.834   4.694  0.00  0.00    +0.000 N 
ATOM      4  C   UNL     1       2.051  -3.298   4.627  0.00  0.00    +0.000 C 
ATOM      5  O   UNL     1       1.605  -3.974   5.529  0.00  0.00    +0.000 OA
BRANCH   3   6
ATOM      6  C   UNL     1       4.148  -3.145   5.858  0.00  0.00    +0.000 C 
ATOM      7  C   UNL     1       5.401  -3.915   5.409  0.00  0.00    +0.000 C 
ATOM      8  C   UNL     1       6.431  -3.967   6.563  0.00  0.00    +0.000 C 
ATOM      9  S   UNL     1       6.055  -2.435   7.508  0.00  0.00    +0.000 S 
ATOM     10  O   UNL     1       5.620  -2.792   8.813  0.00  0.00    +0.000 OA
ATOM     11  O   UNL     1       7.133  -1.522   7.356  0.00  0.00    +0.000 OA
ATOM     12  C   UNL     1       4.611  -1.826   6.541  0.00  0.00    +0.000 C 
ENDBRANCH   3   6
ENDBRANCH   1   4
BRANCH   1  13
ATOM     13  S   UNL     1      -0.436  -3.739   3.634  0.00  0.00    +0.000 S 
BRANCH  13  14
ATOM     14  C   UNL     1      -1.207  -3.219   2.137  0.00  0.00    +0.000 C 
ATOM     15  N   UNL     1      -0.546  -2.486   1.284  0.00  0.00    +0.000 N 
ATOM     16  N   UNL     1      -2.505  -3.587   1.868  0.00  0.00    +0.000 N 
ATOM     17  H   UNL     1       0.454  -2.292   1.438  0.00  0.00    +0.000 HD
ATOM     18  H   UNL     1      -3.026  -4.166   2.542  0.00  0.00    +0.000 HD
ATOM     19  H   UNL     1      -2.955  -3.283   0.993  0.00  0.00    +0.000 HD
BRANCH  15  20
ATOM     20  C   UNL     1      -1.226  -1.939   0.108  0.00  0.00    +0.000 C 
BRANCH  20  21
ATOM     21  C   UNL     1      -1.217  -0.411   0.178  0.00  0.00    +0.000 C 
BRANCH  21  22
ATOM     22  O   UNL     1       0.129   0.062   0.090  0.00  0.00    +0.000 OA
ATOM     23  C   UNL     1       0.250   1.484   0.146  0.00  0.00    +0.000 C 
ENDBRANCH  21  22
ENDBRANCH  20  21
ENDBRANCH  15  20
ENDBRANCH  13  14
ENDBRANCH   1  13
TORSDOF 7
ENDMDL
MODEL     1085
REMARK  Name = ZINC05885721
REMARK  10 active torsions:
REMARK  status: ('A' for Active; 'I' for Inactive)
REMARK    1  A    between atoms: C_1  and  N_2
REMARK    2  A    between atoms: N_2  and  C_3
REMARK    3  A    between atoms: N_2  and  C_4
REMARK    4  A    between atoms: N_2  and  C_22
REMARK    5  A    between atoms: C_4  and  C_5
REMARK    6  A    between atoms: C_5  and  C_6
REMARK    7  A    between atoms: C_6  and  N_7
REMARK    8  A    between atoms: C_8  and  C_10
REMARK    9  A    between atoms: C_16  and  O_17
REMARK   10  A    between atoms: C_22  and  C_23
REMARK                            x       y       z     vdW  Elec       q    Type
REMARK                         _______ _______ _______ _____ _____    ______ ____
ROOT
ATOM      1  C   UNL     1       2.353   1.505  -0.012  0.00  0.00    +0.000 A 
ATOM      2  C   UNL     1       2.393   0.040  -0.023  0.00  0.00    +0.000 A 
ATOM      3  O   UNL     1       3.460  -0.553  -0.033  0.00  0.00    +0.000 OA
ATOM      4  C   UNL     1       1.162  -0.677  -0.021  0.00  0.00    +0.000 A 
ATOM      5  C   UNL     1       0.002  -0.004   0.002  0.00  0.00    +0.000 A 
ATOM      6  N   UNL     1      -0.017   1.365   0.009  0.00  0.00    +0.000 N 
ATOM      7  C   UNL     1       1.103   2.119   0.003  0.00  0.00    +0.000 A 
ATOM      8  C   UNL     1      -1.338  -0.699   0.029  0.00  0.00    +0.000 C 
ATOM      9  C   UNL     1      -1.205  -2.151  -0.421  0.00  0.00    +0.000 C 
ATOM     10  C   UNL     1      -0.079  -2.804   0.391  0.00  0.00    +0.000 C 
ATOM     11  C   UNL     1       1.244  -2.181  -0.047  0.00  0.00    +0.000 C 
ATOM     12  H   UNL     1      -0.929   1.842   0.021  0.00  0.00    +0.000 HD
ENDROOT
BRANCH   1  14
ATOM     13  N   UNL     1       4.167   2.653   1.147  0.00  0.00    +0.000 N 
ATOM     14  C   UNL     1       3.589   2.297  -0.018  0.00  0.00    +0.000 C 
ATOM     15  O   UNL     1       4.091   2.634  -1.073  0.00  0.00    +0.000 OA
ATOM     16  H   UNL     1       3.741   2.369   2.041  0.00  0.00    +0.000 HD
BRANCH  13  17
ATOM     17  C   UNL     1       5.399   3.444   1.142  0.00  0.00    +0.000 C 
BRANCH  17  18
ATOM     18  C   UNL     1       5.842   3.709   2.582  0.00  0.00    +0.000 C 
BRANCH  18  19
ATOM     19  C   UNL     1       7.129   4.535   2.577  0.00  0.00    +0.000 C 
BRANCH  19  21
ATOM     20  C   UNL     1       6.500   5.530   4.667  0.00  0.00    +0.000 C 
ATOM     21  N   UNL     1       7.554   4.790   3.960  0.00  0.00    +0.000 N 
ATOM     22  C   UNL     1       7.796   3.511   4.641  0.00  0.00    +0.000 C 
BRANCH  21  23
ATOM     23  C   UNL     1       8.790   5.583   3.954  0.00  0.00    +0.000 C 
BRANCH  23  24
ATOM     24  C   UNL     1       9.226   5.844   5.373  0.00  0.00    +0.000 C 
ATOM     25  C   UNL     1      10.431   5.508   5.761  0.00  0.00    +0.000 C 
ENDBRANCH  23  24
ENDBRANCH  21  23
ENDBRANCH  19  21
ENDBRANCH  18  19
ENDBRANCH  17  18
ENDBRANCH  13  17
ENDBRANCH   1  14
BRANCH   7  26
ATOM     26  O   UNL     1       1.011   3.464   0.010  0.00  0.00    +0.000 OA
ATOM     27  H   UNL     1       1.516   3.758  -0.789  0.00  0.00    +0.000 HD
ENDBRANCH   7  26
TORSDOF 8
ENDMDL
MODEL     1086
REMARK  Name = ZINC27792282
REMARK  9 active torsions:
REMARK  status: ('A' for Active; 'I' for Inactive)
REMARK    1  A    between atoms: C_1  and  C_2
REMARK    2  A    between atoms: C_2  and  C_3
REMARK    3  A    between atoms: C_2  and  N_20
REMARK    4  A    between atoms: C_3  and  C_4
REMARK    5  A    between atoms: C_3  and  S_13
REMARK    6  A    between atoms: S_13  and  C_14
REMARK    7  A    between atoms: C_14  and  C_15
REMARK    8  A    between atoms: C_15  and  C_16
REMARK    9  A    between atoms: C_15  and  N_19
REMARK                            x       y       z     vdW  Elec       q    Type
REMARK                         _______ _______ _______ _____ _____    ______ ____
ROOT
ATOM      1  C   UNK     1       0.900  -0.930  -1.597  0.00  0.00    +0.000 C 
ENDROOT
BRANCH   1   2
ATOM      2  C   UNK     1       0.389  -0.573  -2.970  0.00  0.00    +0.000 A 
ATOM      3  C   UNK     1      -0.957  -0.699  -3.259  0.00  0.00    +0.000 A 
ATOM      4  C   UNK     1      -1.429  -0.374  -4.517  0.00  0.00    +0.000 A 
ATOM      5  C   UNK     1      -0.555   0.081  -5.490  0.00  0.00    +0.000 A 
ATOM      6  C   UNK     1       0.801   0.208  -5.198  0.00  0.00    +0.000 A 
ATOM      7  C   UNK     1       1.267  -0.115  -3.934  0.00  0.00    +0.000 A 
ATOM      8  O   UNK     1       1.445   0.670  -6.309  0.00  0.00    +0.000 OA
ATOM      9  C   UNK     1       0.413   1.212  -7.155  0.00  0.00    +0.000 C 
ATOM     10  O   UNK     1      -0.760   0.463  -6.785  0.00  0.00    +0.000 OA
ENDBRANCH   1   2
BRANCH   1  12
ATOM     11  C   UNK     1       0.482   1.423  -0.868  0.00  0.00    +0.000 C 
ATOM     12  C   UNK     1       0.211  -0.049  -0.552  0.00  0.00    +0.000 C 
BRANCH  12  13
ATOM     13  N   UNK     1       0.736  -0.368   0.777  0.00  0.00    +0.000 N 
ATOM     14  O   UNK     1      -0.022  -0.716   1.664  0.00  0.00    +0.000 OA
ATOM     15  O   UNK     1       1.932  -0.285   0.996  0.00  0.00    +0.000 OA
ENDBRANCH  12  13
ENDBRANCH   1  12
BRANCH   1  16
ATOM     16  S   UNK     1       0.537  -2.673  -1.252  0.00  0.00    +0.000 S 
BRANCH  16  17
ATOM     17  C   UNK     1       1.567  -3.058   0.191  0.00  0.00    +0.000 C 
BRANCH  17  18
ATOM     18  C   UNK     1       1.461  -4.550   0.511  0.00  0.00    +0.000 C 
BRANCH  18  19
ATOM     19  N   UNK     1       2.034  -5.330  -0.595  0.00  0.00    +0.000 N 
ATOM     20  H   UNK     1       3.024  -5.076  -0.718  0.00  0.00    +0.000 HD
ATOM     21  H   UNK     1       1.517  -5.128  -1.462  0.00  0.00    +0.000 HD
ATOM     22  H   UNK     1       1.962  -6.335  -0.380  0.00  0.00    +0.000 HD
ENDBRANCH  18  19
BRANCH  18  23
ATOM     23  C   UNK     1       2.217  -4.848   1.780  0.00  0.00    +0.000 C 
ATOM     24  O   UNK     1       3.327  -5.321   1.725  0.00  0.00    +0.000 OA
ATOM     25  O   UNK     1       1.657  -4.587   2.972  0.00  0.00    +0.000 OA
ENDBRANCH  18  23
ENDBRANCH  17  18
ENDBRANCH  16  17
ENDBRANCH   1  16
TORSDOF 8
ENDMDL
MODEL     1087
REMARK  Name = ZINC02267985
REMARK  10 active torsions:
REMARK  status: ('A' for Active; 'I' for Inactive)
REMARK    1  A    between atoms: C_1  and  C_2
REMARK    2  A    between atoms: C_2  and  C_21
REMARK    3  A    between atoms: C_3  and  N_18
REMARK    4  A    between atoms: C_6  and  N_12
REMARK    5  A    between atoms: C_9  and  C_10
REMARK    6  A    between atoms: C_9  and  N_23
REMARK    7  A    between atoms: C_10  and  O_11
REMARK    8  A    between atoms: C_15  and  C_16
REMARK    9  A    between atoms: C_15  and  N_22
REMARK   10  A    between atoms: C_16  and  O_17
REMARK                            x       y       z     vdW  Elec       q    Type
REMARK                         _______ _______ _______ _____ _____    ______ ____
ROOT
ATOM      1  C   UNL     1      -1.902  -0.421   4.175  0.00  0.00    +0.000 C 
ATOM      2  C   UNL     1      -1.840   1.104   4.080  0.00  0.00    +0.000 C 
ATOM      3  C   UNL     1      -2.595   1.576   2.831  0.00  0.00    +0.000 C 
ATOM      4  C   UNL     1      -2.502   3.102   2.743  0.00  0.00    +0.000 C 
ATOM      5  C   UNL     1      -0.340   3.082   3.844  0.00  0.00    +0.000 C 
ATOM      6  C   UNL     1      -0.379   1.555   3.959  0.00  0.00    +0.000 C 
ATOM      7  C   UNL     1       0.226   0.941   2.693  0.00  0.00    +0.000 C 
ATOM      8  C   UNL     1      -1.936   0.961   1.593  0.00  0.00    +0.000 C 
ATOM      9  C   UNL     1      -2.469   1.725   5.329  0.00  0.00    +0.000 C 
ATOM     10  N   UNL     1      -1.079   3.489   2.629  0.00  0.00    +0.000 N 
ATOM     11  N   UNL     1      -0.533   1.422   1.518  0.00  0.00    +0.000 NA
ATOM     12  H   UNL     1      -0.669   3.010   1.814  0.00  0.00    +0.000 HD
ENDROOT
BRANCH   6  13
ATOM     13  N   UNL     1       0.390   1.128   5.131  0.00  0.00    +0.000 N 
ATOM     14  O   UNL     1       1.575   1.398   5.214  0.00  0.00    +0.000 OA
ATOM     15  O   UNL     1      -0.156   0.504   6.023  0.00  0.00    +0.000 OA
ENDBRANCH   6  13
BRANCH   3  16
ATOM     16  N   UNL     1      -4.001   1.169   2.897  0.00  0.00    +0.000 N 
ATOM     17  O   UNL     1      -4.880   2.011   2.877  0.00  0.00    +0.000 OA
ATOM     18  O   UNL     1      -4.291  -0.012   2.972  0.00  0.00    +0.000 OA
ENDBRANCH   3  16
BRANCH  11  19
ATOM     19  C   UNL     1       0.094   0.928   0.276  0.00  0.00    +0.000 C 
BRANCH  19  20
ATOM     20  C   UNL     1      -0.779   1.326  -0.916  0.00  0.00    +0.000 C 
BRANCH  20  21
ATOM     21  O   UNL     1      -0.873   2.750  -0.983  0.00  0.00    +0.000 OA
ATOM     22  H   UNL     1       0.032   3.136  -1.094  0.00  0.00    +0.000 HD
ENDBRANCH  20  21
ENDBRANCH  19  20
ENDBRANCH  11  19
BRANCH  10  23
ATOM     23  C   UNL     1      -0.968   4.949   2.437  0.00  0.00    +0.000 C 
BRANCH  23  24
ATOM     24  C   UNL     1       0.418   5.263   1.870  0.00  0.00    +0.000 C 
BRANCH  24  25
ATOM     25  O   UNL     1       0.554   4.659   0.582  0.00  0.00    +0.000 OA
ATOM     26  H   UNL     1      -0.139   5.018  -0.026  0.00  0.00    +0.000 HD
ENDBRANCH  24  25
ENDBRANCH  23  24
ENDBRANCH  10  23
TORSDOF 8
ENDMDL
MODEL     1088
REMARK  Name = ZINC05386388
REMARK  10 active torsions:
REMARK  status: ('A' for Active; 'I' for Inactive)
REMARK    1  A    between atoms: C_1  and  C_2
REMARK    2  A    between atoms: C_6  and  N_20
REMARK    3  A    between atoms: C_7  and  N_14
REMARK    4  A    between atoms: C_8  and  N_11
REMARK    5  A    between atoms: N_14  and  C_15
REMARK    6  A    between atoms: C_15  and  C_16
REMARK    7  A    between atoms: C_16  and  C_17
REMARK    8  A    between atoms: C_17  and  N_23
REMARK    9  A    between atoms: C_18  and  N_23
REMARK   10  A    between atoms: C_19  and  N_23
REMARK                            x       y       z     vdW  Elec       q    Type
REMARK                         _______ _______ _______ _____ _____    ______ ____
ROOT
ATOM      1  C   UNL     1      -0.006   1.122   0.002  0.00  0.00    +0.000 C 
ATOM      2  C   UNL     1      -0.713   1.597   1.245  0.00  0.00    +0.000 A 
ATOM      3  N   UNL     1      -0.108   1.844   2.438  0.00  0.00    +0.000 N 
ATOM      4  C   UNL     1      -1.091   2.259   3.318  0.00  0.00    +0.000 A 
ATOM      5  C   UNL     1      -1.090   2.645   4.652  0.00  0.00    +0.000 A 
ATOM      6  C   UNL     1      -2.268   3.014   5.262  0.00  0.00    +0.000 A 
ATOM      7  C   UNL     1      -3.465   3.002   4.548  0.00  0.00    +0.000 A 
ATOM      8  C   UNL     1      -3.483   2.621   3.219  0.00  0.00    +0.000 A 
ATOM      9  C   UNL     1      -2.293   2.244   2.591  0.00  0.00    +0.000 A 
ATOM     10  N   UNL     1      -1.989   1.836   1.332  0.00  0.00    +0.000 NA
ATOM     11  H   UNL     1       0.895   1.741   2.647  0.00  0.00    +0.000 HD
ENDROOT
BRANCH   6  12
ATOM     12  N   UNL     1      -2.264   3.425   6.684  0.00  0.00    +0.000 N 
ATOM     13  O   UNL     1      -1.239   3.347   7.337  0.00  0.00    +0.000 OA
ATOM     14  O   UNL     1      -3.286   3.840   7.201  0.00  0.00    +0.000 OA
ENDBRANCH   6  12
BRANCH   8  15
ATOM     15  N   UNL     1      -4.757   2.611   2.465  0.00  0.00    +0.000 N 
ATOM     16  O   UNL     1      -5.117   3.608   1.865  0.00  0.00    +0.000 OA
ATOM     17  O   UNL     1      -5.444   1.606   2.445  0.00  0.00    +0.000 OA
ENDBRANCH   8  15
BRANCH   7  18
ATOM     18  N   UNL     1      -4.656   3.379   5.179  0.00  0.00    +0.000 N 
ATOM     19  H   UNL     1      -5.242   2.748   5.745  0.00  0.00    +0.000 HD
BRANCH  18  20
ATOM     20  C   UNL     1      -4.960   4.794   4.928  0.00  0.00    +0.000 C 
BRANCH  20  21
ATOM     21  C   UNL     1      -6.194   5.202   5.735  0.00  0.00    +0.000 C 
BRANCH  21  22
ATOM     22  C   UNL     1      -6.511   6.676   5.473  0.00  0.00    +0.000 C 
BRANCH  22  25
ATOM     23  C   UNL     1      -7.421   7.019   7.690  0.00  0.00    +0.000 C 
ATOM     24  C   UNL     1      -8.172   8.397   5.847  0.00  0.00    +0.000 C 
ATOM     25  N   UNL     1      -7.717   7.048   6.243  0.00  0.00    +0.000 N 
ATOM     26  H   UNL     1      -8.465   6.370   6.040  0.00  0.00    +0.000 HD
ENDBRANCH  22  25
ENDBRANCH  21  22
ENDBRANCH  20  21
ENDBRANCH  18  20
ENDBRANCH   7  18
TORSDOF 7
ENDMDL
MODEL     1089
REMARK  Name = ZINC06494120
REMARK  10 active torsions:
REMARK  status: ('A' for Active; 'I' for Inactive)
REMARK    1  A    between atoms: C_1  and  C_2
REMARK    2  A    between atoms: C_2  and  C_3
REMARK    3  A    between atoms: C_2  and  O_17
REMARK    4  A    between atoms: C_3  and  N_4
REMARK    5  A    between atoms: C_12  and  N_13
REMARK    6  A    between atoms: N_13  and  C_14
REMARK    7  A    between atoms: N_13  and  C_15
REMARK    8  A    between atoms: O_17  and  C_18
REMARK    9  A    between atoms: C_18  and  P_19
REMARK   10  A    between atoms: P_19  and  O_22
REMARK                            x       y       z     vdW  Elec       q    Type
REMARK                         _______ _______ _______ _____ _____    ______ ____
ROOT
ATOM      1  N   UNL     1      -0.895   1.627  -0.338  0.00  0.00    +0.000 N 
ATOM      2  C   UNL     1      -0.369   2.792  -0.592  0.00  0.00    +0.000 A 
ATOM      3  N   UNL     1       0.979   2.694  -0.636  0.00  0.00    +0.000 NA
ATOM      4  C   UNL     1       1.299   1.374  -0.386  0.00  0.00    +0.000 A 
ATOM      5  C   UNL     1       0.078   0.708  -0.194  0.00  0.00    +0.000 A 
ATOM      6  N   UNL     1       0.096  -0.604   0.070  0.00  0.00    +0.000 NA
ATOM      7  C   UNL     1       1.241  -1.257   0.147  0.00  0.00    +0.000 A 
ATOM      8  N   UNL     1       2.413  -0.658  -0.029  0.00  0.00    +0.000 NA
ATOM      9  C   UNL     1       2.485   0.643  -0.294  0.00  0.00    +0.000 A 
ATOM     10  N   UNL     1       1.219  -2.615   0.421  0.00  0.00    +0.000 N 
ATOM     11  H   UNL     1       0.327  -3.110   0.564  0.00  0.00    +0.000 HD
ATOM     12  H   UNL     1       2.107  -3.134   0.484  0.00  0.00    +0.000 HD
ENDROOT
BRANCH   9  13
ATOM     13  N   UNL     1       3.712   1.260  -0.476  0.00  0.00    +0.000 N 
ATOM     14  C   UNL     1       4.812   0.298  -0.333  0.00  0.00    +0.000 C 
ATOM     15  C   UNL     1       3.772   1.940  -1.777  0.00  0.00    +0.000 C 
ENDBRANCH   9  13
BRANCH   1  16
ATOM     16  C   UNL     1      -2.331   1.358  -0.224  0.00  0.00    +0.000 C 
BRANCH  16  18
ATOM     17  C   UNL     1      -4.266   1.269   1.354  0.00  0.00    +0.000 C 
ATOM     18  C   UNL     1      -2.748   1.426   1.246  0.00  0.00    +0.000 C 
BRANCH  18  19
ATOM     19  O   UNL     1      -2.108   0.375   1.972  0.00  0.00    +0.000 OA
BRANCH  19  20
ATOM     20  C   UNL     1      -1.963   0.637   3.369  0.00  0.00    +0.000 C 
BRANCH  20  21
ATOM     21  P   UNL     1      -0.601   1.821   3.627  0.00  0.00    +0.000 P 
ATOM     22  O   UNL     1       0.626   1.311   2.977  0.00  0.00    +0.000 OA
ATOM     23  O   UNL     1      -0.998   3.244   2.985  0.00  0.00    +0.000 OA
BRANCH  21  24
ATOM     24  O   UNL     1      -0.338   2.000   5.206  0.00  0.00    +0.000 OA
ATOM     25  H   UNL     1      -0.093   1.126   5.601  0.00  0.00    +0.000 HD
ENDBRANCH  21  24
ENDBRANCH  20  21
ENDBRANCH  19  20
ENDBRANCH  18  19
ENDBRANCH  16  18
ENDBRANCH   1  16
TORSDOF 7
ENDMDL
MODEL     1090
REMARK  Name = ZINC16900716
REMARK  9 active torsions:
REMARK  status: ('A' for Active; 'I' for Inactive)
REMARK    1  A    between atoms: C_1  and  C_2
REMARK    2  A    between atoms: C_2  and  C_3
REMARK    3  A    between atoms: C_2  and  C_4
REMARK    4  A    between atoms: C_4  and  C_5
REMARK    5  A    between atoms: C_14  and  S_17
REMARK    6  A    between atoms: S_17  and  C_18
REMARK    7  A    between atoms: C_18  and  C_19
REMARK    8  A    between atoms: C_19  and  C_20
REMARK    9  A    between atoms: C_19  and  N_23
REMARK                            x       y       z     vdW  Elec       q    Type
REMARK                         _______ _______ _______ _____ _____    ______ ____
ROOT
ATOM      1  C   UNK     1       0.002  -0.004   0.002  0.00  0.00    +0.000 A 
ATOM      2  N   UNK     1      -0.016   1.311   0.009  0.00  0.00    +0.000 NA
ATOM      3  N   UNK     1       1.062   1.970   0.003  0.00  0.00    +0.000 NA
ATOM      4  C   UNK     1       2.227   1.346  -0.012  0.00  0.00    +0.000 A 
ATOM      5  S   UNK     1       1.712  -0.314  -0.016  0.00  0.00    +0.000 S 
ATOM      6  N   UNK     1       3.517   1.875  -0.021  0.00  0.00    +0.000 N 
ATOM      7  C   UNK     1       4.614   1.108  -0.036  0.00  0.00    +0.000 C 
ATOM      8  O   UNK     1       4.624  -0.104  -0.043  0.00  0.00    +0.000 OA
ATOM      9  C   UNK     1       5.841   1.995  -0.042  0.00  0.00    +0.000 C 
ATOM     10  C   UNK     1       5.256   3.421  -0.029  0.00  0.00    +0.000 C 
ATOM     11  C   UNK     1       3.760   3.192  -0.022  0.00  0.00    +0.000 C 
ATOM     12  O   UNK     1       2.916   4.062  -0.015  0.00  0.00    +0.000 OA
ENDROOT
BRANCH  10  13
ATOM     13  S   UNK     1       5.750   4.328  -1.520  0.00  0.00    +0.000 S 
BRANCH  13  14
ATOM     14  C   UNK     1       5.105   6.002  -1.250  0.00  0.00    +0.000 C 
BRANCH  14  15
ATOM     15  C   UNK     1       5.456   6.884  -2.450  0.00  0.00    +0.000 C 
BRANCH  15  16
ATOM     16  N   UNK     1       4.759   6.386  -3.644  0.00  0.00    +0.000 N 
ATOM     17  H   UNK     1       3.742   6.414  -3.485  0.00  0.00    +0.000 HD
ATOM     18  H   UNK     1       5.051   5.417  -3.834  0.00  0.00    +0.000 HD
ATOM     19  H   UNK     1       4.995   6.980  -4.452  0.00  0.00    +0.000 HD
ENDBRANCH  15  16
BRANCH  15  20
ATOM     20  C   UNK     1       5.029   8.302  -2.173  0.00  0.00    +0.000 C 
ATOM     21  O   UNK     1       3.997   8.725  -2.640  0.00  0.00    +0.000 OA
ATOM     22  O   UNK     1       5.794   9.096  -1.408  0.00  0.00    +0.000 OA
ENDBRANCH  15  20
ENDBRANCH  14  15
ENDBRANCH  13  14
ENDBRANCH  10  13
BRANCH   1  23
ATOM     23  C   UNK     1      -1.148  -0.978   0.008  0.00  0.00    +0.000 C 
BRANCH  23  25
ATOM     24  C   UNK     1      -0.403  -2.033  -2.131  0.00  0.00    +0.000 C 
ATOM     25  C   UNK     1      -1.550  -1.300  -1.433  0.00  0.00    +0.000 C 
ATOM     26  C   UNK     1      -2.795  -2.190  -1.427  0.00  0.00    +0.000 C 
ENDBRANCH  23  25
ENDBRANCH   1  23
TORSDOF 7
ENDMDL
MODEL     1091
REMARK  Name = ZINC06484735
REMARK  10 active torsions:
REMARK  status: ('A' for Active; 'I' for Inactive)
REMARK    1  A    between atoms: C_1  and  C_2
REMARK    2  A    between atoms: C_4  and  O_21
REMARK    3  A    between atoms: C_7  and  C_13
REMARK    4  A    between atoms: C_13  and  N_22
REMARK    5  A    between atoms: CA_14  and  CB_15
REMARK    6  A    between atoms: CA_14  and  C_19
REMARK    7  A    between atoms: CA_14  and  N_22
REMARK    8  A    between atoms: CB_15  and  CG_16
REMARK    9  A    between atoms: CG_16  and  SD_17
REMARK   10  A    between atoms: SD_17  and  CE_18
REMARK                            x       y       z     vdW  Elec       q    Type
REMARK                         _______ _______ _______ _____ _____    ______ ____
ROOT
ATOM      1  C   UNL     1       0.065  -2.834   2.513  0.00  0.00    +0.000 C 
ATOM      2  C   UNL     1       0.042  -2.071   1.214  0.00  0.00    +0.000 A 
ATOM      3  C   UNL     1       0.023  -0.689   1.207  0.00  0.00    +0.000 A 
ATOM      4  C   UNL     1       0.002  -0.004   0.002  0.00  0.00    +0.000 A 
ATOM      5  O   UNL     1      -0.006  -0.653  -1.168  0.00  0.00    +0.000 OA
ATOM      6  C   UNL     1       0.018  -2.001  -1.219  0.00  0.00    +0.000 A 
ATOM      7  C   UNL     1       0.015  -2.659  -2.433  0.00  0.00    +0.000 A 
ATOM      8  C   UNL     1       0.033  -4.056  -2.465  0.00  0.00    +0.000 A 
ATOM      9  O   UNL     1       0.030  -4.693  -3.637  0.00  0.00    +0.000 OA
ATOM     10  C   UNL     1       0.054  -4.794  -1.266  0.00  0.00    +0.000 A 
ATOM     11  C   UNL     1       0.057  -4.157  -0.068  0.00  0.00    +0.000 A 
ATOM     12  C   UNL     1       0.039  -2.751  -0.020  0.00  0.00    +0.000 A 
ENDROOT
BRANCH   4  13
ATOM     13  O   UNL     1      -0.016   1.343   0.009  0.00  0.00    +0.000 OA
ATOM     14  H   UNL     1       0.782   1.611   0.530  0.00  0.00    +0.000 HD
ENDBRANCH   4  13
BRANCH   7  15
ATOM     15  C   ACE A   0      -0.007  -1.873  -3.719  0.00  0.00    +0.000 C 
BRANCH  15  16
ATOM     16  N   UNL     1      -1.407  -1.639  -4.119  0.00  0.00    +0.000 N 
ATOM     17  H1  UNL     1      -1.891  -1.113  -3.378  0.00  0.00    +0.000 HD
ATOM     18  H2  UNL     1      -1.879  -2.545  -4.253  0.00  0.00    +0.000 HD
BRANCH  16  19
ATOM     19  CA  UNL     1      -1.459  -0.871  -5.377  0.00  0.00    +0.000 C 
BRANCH  19  20
ATOM     20  C   UNL     1      -1.365   0.602  -5.072  0.00  0.00    +0.000 C 
ATOM     21  O   UNL     1      -1.259   0.976  -3.927  0.00  0.00    +0.000 OA
ATOM     22  OXT UNL     1      -1.400   1.498  -6.070  0.00  0.00    +0.000 OA
ENDBRANCH  19  20
BRANCH  19  23
ATOM     23  CB  UNL     1      -2.782  -1.161  -6.089  0.00  0.00    +0.000 C 
BRANCH  23  24
ATOM     24  CG  UNL     1      -2.823  -2.631  -6.510  0.00  0.00    +0.000 C 
BRANCH  24  25
ATOM     25  SD  UNL     1      -4.392  -2.975  -7.354  0.00  0.00    +0.000 S 
ATOM     26  CE  UNL     1      -4.283  -4.734  -7.783  0.00  0.00    +0.000 C 
ENDBRANCH  24  25
ENDBRANCH  23  24
ENDBRANCH  19  23
ENDBRANCH  16  19
ENDBRANCH  15  16
ENDBRANCH   7  15
TORSDOF 8
ENDMDL
MODEL     1092
REMARK  Name = ZINC08298941
REMARK  12 active torsions:
REMARK  status: ('A' for Active; 'I' for Inactive)
REMARK    1  A    between atoms: C_1  and  C_2
REMARK    2  A    between atoms: C_3  and  C_20
REMARK    3  A    between atoms: C_3  and  O_22
REMARK    4  A    between atoms: C_4  and  O_8
REMARK    5  A    between atoms: C_5  and  O_7
REMARK    6  A    between atoms: O_8  and  C_9
REMARK    7  A    between atoms: C_10  and  N_23
REMARK    8  A    between atoms: C_11  and  O_18
REMARK    9  A    between atoms: C_12  and  O_17
REMARK   10  A    between atoms: C_13  and  C_15
REMARK   11  A    between atoms: C_15  and  O_16
REMARK   12  A    between atoms: C_19  and  N_23
REMARK                            x       y       z     vdW  Elec       q    Type
REMARK                         _______ _______ _______ _____ _____    ______ ____
ROOT
ATOM      1  C   UNL     1       4.411   3.846   4.010  0.00  0.00    +0.000 C 
ATOM      2  C   UNL     1       5.612   3.063   3.473  0.00  0.00    +0.000 C 
ATOM      3  C   UNL     1       6.899   3.821   3.813  0.00  0.00    +0.000 C 
ATOM      4  C   UNL     1       6.971   4.029   5.329  0.00  0.00    +0.000 C 
ATOM      5  C   UNL     1       5.718   4.775   5.794  0.00  0.00    +0.000 C 
ATOM      6  O   UNL     1       4.556   4.032   5.420  0.00  0.00    +0.000 OA
ENDROOT
BRANCH   2   8
ATOM      7  C   UNL     1       5.666   0.675   3.075  0.00  0.00    +0.000 C 
ATOM      8  N   UNL     1       5.648   1.730   4.105  0.00  0.00    +0.000 N 
ATOM      9  H   UNL     1       4.815   1.611   4.700  0.00  0.00    +0.000 HD
ATOM     10  H   UNL     1       6.493   1.652   4.689  0.00  0.00    +0.000 HD
ENDBRANCH   2   8
BRANCH   3  11
ATOM     11  O   UNL     1       8.030   3.063   3.380  0.00  0.00    +0.000 OA
ATOM     12  H   UNL     1       7.979   2.923   2.401  0.00  0.00    +0.000 HD
ENDBRANCH   3  11
BRANCH   4  13
ATOM     13  O   UNL     1       7.042   2.760   5.982  0.00  0.00    +0.000 OA
ATOM     14  H   UNL     1       7.850   2.276   5.677  0.00  0.00    +0.000 HD
ENDBRANCH   4  13
BRANCH   1  15
ATOM     15  O   UNL     1       3.210   3.117   3.746  0.00  0.00    +0.000 OA
BRANCH  15  19
ATOM     16  C   UNL     1      -1.469   4.220   3.412  0.00  0.00    +0.000 C 
ATOM     17  C   UNL     1      -0.367   3.373   4.053  0.00  0.00    +0.000 C 
ATOM     18  C   UNL     1       0.848   3.294   3.109  0.00  0.00    +0.000 C 
ATOM     19  C   UNL     1       2.015   3.875   3.944  0.00  0.00    +0.000 C 
ATOM     20  C   UNL     1       1.490   3.713   5.393  0.00  0.00    +0.000 C 
ATOM     21  O   UNL     1       0.078   3.989   5.273  0.00  0.00    +0.000 OA
BRANCH  18  22
ATOM     22  C   UNL     1       1.129   1.863   2.730  0.00  0.00    +0.000 C 
ATOM     23  O   UNL     1       2.216   1.383   2.945  0.00  0.00    +0.000 OA
ENDBRANCH  18  22
BRANCH  18  24
ATOM     24  O   UNL     1       0.626   4.086   1.940  0.00  0.00    +0.000 OA
ATOM     25  H   UNL     1       0.479   5.027   2.210  0.00  0.00    +0.000 HD
ENDBRANCH  18  24
BRANCH  20  26
ATOM     26  O   UNL     1       1.704   2.379   5.859  0.00  0.00    +0.000 OA
ATOM     27  H   UNL     1       2.674   2.180   5.834  0.00  0.00    +0.000 HD
ENDBRANCH  20  26
ENDBRANCH  15  19
ENDBRANCH   1  15
BRANCH   5  28
ATOM     28  C   UNL     1       5.753   4.934   7.315  0.00  0.00    +0.000 C 
BRANCH  28  29
ATOM     29  O   UNL     1       4.644   5.729   7.737  0.00  0.00    +0.000 OA
ATOM     30  H   UNL     1       3.799   5.286   7.472  0.00  0.00    +0.000 HD
ENDBRANCH  28  29
ENDBRANCH   5  28
TORSDOF 10
ENDMDL
MODEL     1093
REMARK  Name = ZINC19794098
REMARK  10 active torsions:
REMARK  status: ('A' for Active; 'I' for Inactive)
REMARK    1  A    between atoms: C_1  and  N_2
REMARK    2  A    between atoms: N_2  and  C_3
REMARK    3  A    between atoms: N_2  and  C_4
REMARK    4  A    between atoms: C_4  and  C_5
REMARK    5  A    between atoms: C_5  and  C_6
REMARK    6  A    between atoms: C_14  and  N_16
REMARK    7  A    between atoms: N_16  and  CA_17
REMARK    8  A    between atoms: CA_17  and  CB_18
REMARK    9  A    between atoms: CA_17  and  C_20
REMARK   10  A    between atoms: CB_18  and  OG_19
REMARK                            x       y       z     vdW  Elec       q    Type
REMARK                         _______ _______ _______ _____ _____    ______ ____
ROOT
ATOM      1  C   UNK A   0       3.354   3.462  -3.504  0.00  0.00    +0.000 A 
ATOM      2  N   UNK A   0       4.606   3.845  -3.595  0.00  0.00    +0.000 NA
ATOM      3  C   UNK A   0       5.304   4.154  -2.492  0.00  0.00    +0.000 A 
ATOM      4  C   UNK A   0       6.643   4.565  -2.552  0.00  0.00    +0.000 A 
ATOM      5  C   UNK A   0       7.306   4.867  -1.401  0.00  0.00    +0.000 A 
ATOM      6  C   UNK A   0       6.675   4.774  -0.163  0.00  0.00    +0.000 A 
ATOM      7  C   UNK A   0       5.373   4.377  -0.069  0.00  0.00    +0.000 A 
ATOM      8  C   UNK A   0       4.663   4.064  -1.233  0.00  0.00    +0.000 A 
ATOM      9  C   UNK A   0       3.312   3.640  -1.199  0.00  0.00    +0.000 A 
ATOM     10  N   UNK A   0       2.715   3.359  -2.350  0.00  0.00    +0.000 NA
ENDROOT
BRANCH   9  11
ATOM     11  N   SER A   1       2.634   3.529  -0.004  0.00  0.00    +0.000 N 
ATOM     12  H   SER A   1       3.111   3.751   0.881  0.00  0.00    +0.000 HD
BRANCH  11  13
ATOM     13  CA  SER A   1       1.235   3.094   0.007  0.00  0.00    +0.000 C 
BRANCH  13  14
ATOM     14  C   SER A   1       1.177   1.588  -0.001  0.00  0.00    +0.000 C 
ATOM     15  O   SER A   1       2.199   0.944  -0.014  0.00  0.00    +0.000 OA
ATOM     16  OXT SER A   1      -0.011   0.963   0.007  0.00  0.00    +0.000 OA
ENDBRANCH  13  14
BRANCH  13  17
ATOM     17  CB  SER A   1       0.546   3.625   1.266  0.00  0.00    +0.000 C 
BRANCH  17  18
ATOM     18  OG  SER A   1       1.137   3.026   2.421  0.00  0.00    +0.000 OA
ATOM     19  H   SER A   1       2.101   3.251   2.453  0.00  0.00    +0.000 HD
ENDBRANCH  17  18
ENDBRANCH  13  17
ENDBRANCH  11  13
ENDBRANCH   9  11
BRANCH   1  20
ATOM     20  C   UNK A   0       2.611   3.125  -4.771  0.00  0.00    +0.000 C 
BRANCH  20  21
ATOM     21  C   UNK A   0       1.932   4.383  -5.314  0.00  0.00    +0.000 C 
BRANCH  21  23
ATOM     22  C   UNK A   0       0.352   5.172  -6.971  0.00  0.00    +0.000 C 
ATOM     23  N   UNK A   0       1.207   4.055  -6.549  0.00  0.00    +0.000 N 
ATOM     24  C   UNK A   0       2.138   3.671  -7.619  0.00  0.00    +0.000 C 
ATOM     25  H   UNK A   0       0.599   3.247  -6.354  0.00  0.00    +0.000 HD
ENDBRANCH  21  23
ENDBRANCH  20  21
ENDBRANCH   1  20
TORSDOF 8
ENDMDL
MODEL     1094
REMARK  Name = ZINC05996465
REMARK  10 active torsions:
REMARK  status: ('A' for Active; 'I' for Inactive)
REMARK    1  A    between atoms: C_1  and  N_2
REMARK    2  A    between atoms: N_2  and  P_3
REMARK    3  A    between atoms: P_3  and  N_19
REMARK    4  A    between atoms: P_5  and  N_14
REMARK    5  A    between atoms: P_5  and  N_16
REMARK    6  A    between atoms: P_7  and  N_9
REMARK    7  A    between atoms: P_7  and  N_11
REMARK    8  A    between atoms: N_9  and  C_10
REMARK    9  A    between atoms: N_14  and  C_15
REMARK   10  A    between atoms: N_19  and  C_20
REMARK                            x       y       z     vdW  Elec       q    Type
REMARK                         _______ _______ _______ _____ _____    ______ ____
ROOT
ATOM      1  P   UNL     1       3.606   0.132   0.618  0.00  0.00    +0.000 P 
ATOM      2  N   UNL     1       2.174  -0.584   0.709  0.00  0.00    +0.000 NA
ATOM      3  P   UNL     1       0.963   0.009  -0.155  0.00  0.00    +0.000 P 
ATOM      4  N   UNL     1       0.903   1.593   0.079  0.00  0.00    +0.000 NA
ATOM      5  P   UNL     1       2.256   2.441  -0.050  0.00  0.00    +0.000 P 
ATOM      6  N   UNL     1       3.395   1.709   0.809  0.00  0.00    +0.000 NA
ENDROOT
BRANCH   1   8
ATOM      7  C   UNL     1       5.953   0.136   1.738  0.00  0.00    +0.000 C 
ATOM      8  N   UNL     1       4.612  -0.456   1.833  0.00  0.00    +0.000 NA
ATOM      9  H   UNL     1       4.686  -1.480   1.747  0.00  0.00    +0.000 HD
ENDBRANCH   1   8
BRANCH   5  10
ATOM     10  N   UNL     1       2.725   2.517  -1.664  0.00  0.00    +0.000 NA
ATOM     11  C   UNL     1       4.082   3.065  -1.793  0.00  0.00    +0.000 C 
ATOM     12  H   UNL     1       2.068   3.117  -2.183  0.00  0.00    +0.000 HD
ENDBRANCH   5  10
BRANCH   5  13
ATOM     13  N   UNL     1       2.010   3.996   0.544  0.00  0.00    +0.000 NA
ATOM     14  C   UNL     1       2.128   4.994  -0.527  0.00  0.00    +0.000 C 
ATOM     15  C   UNL     1       3.250   4.782   0.491  0.00  0.00    +0.000 C 
ENDBRANCH   5  13
BRANCH   3  16
ATOM     16  N   UNL     1      -0.484  -0.693   0.341  0.00  0.00    +0.000 NA
ATOM     17  C   UNL     1      -0.731  -0.439   1.767  0.00  0.00    +0.000 C 
ATOM     18  H   UNL     1      -0.444  -1.710   0.181  0.00  0.00    +0.000 HD
ENDBRANCH   3  16
BRANCH   3  19
ATOM     19  N   UNL     1       1.219  -0.314  -1.787  0.00  0.00    +0.000 NA
ATOM     20  C   UNL     1       0.037  -0.942  -2.392  0.00  0.00    +0.000 C 
ATOM     21  C   UNL     1       1.280  -1.760  -2.035  0.00  0.00    +0.000 C 
ENDBRANCH   3  19
BRANCH   1  22
ATOM     22  N   UNL     1       4.296  -0.170  -0.886  0.00  0.00    +0.000 NA
ATOM     23  C   UNL     1       4.638  -1.591  -1.033  0.00  0.00    +0.000 C 
ATOM     24  H   UNL     1       5.150   0.395  -0.990  0.00  0.00    +0.000 HD
ENDBRANCH   1  22
TORSDOF 6
ENDMDL
MODEL     1095
REMARK  Name = ZINC01428799
REMARK  7 active torsions:
REMARK  status: ('A' for Active; 'I' for Inactive)
REMARK    1  A    between atoms: C_1  and  C_2
REMARK    2  A    between atoms: C_2  and  O_3
REMARK    3  A    between atoms: O_3  and  C_4
REMARK    4  A    between atoms: C_4  and  C_6
REMARK    5  A    between atoms: C_11  and  C_12
REMARK    6  A    between atoms: C_11  and  N_22
REMARK    7  A    between atoms: CA_13  and  C_20
REMARK                            x       y       z     vdW  Elec       q    Type
REMARK                         _______ _______ _______ _____ _____    ______ ____
ROOT
ATOM      1  C   UNL     1       0.345   1.040  -7.572  0.00  0.00    +0.000 C 
ENDROOT
BRANCH   1   2
ATOM      2  C   UNL     1      -0.421   1.797  -8.626  0.00  0.00    +0.000 A 
ATOM      3  CA  UNL     1      -0.158   3.108  -8.870  0.00  0.00    +0.000 A 
ATOM      4  N   UNL     1      -0.877   3.772  -9.840  0.00  0.00    +0.000 N 
ATOM      5  C   UNL     1      -1.832   3.148 -10.549  0.00  0.00    +0.000 A 
ATOM      6  O   UNL     1      -2.442   3.771 -11.396  0.00  0.00    +0.000 OA
ATOM      7  N   UNL     1      -2.130   1.853 -10.347  0.00  0.00    +0.000 N 
ATOM      8  C   UNL     1      -1.466   1.135  -9.417  0.00  0.00    +0.000 A 
ATOM      9  O   UNL     1      -1.731  -0.038  -9.235  0.00  0.00    +0.000 OA
ATOM     10  H   UNL     1      -0.677   4.766 -10.025  0.00  0.00    +0.000 HD
ATOM     11  H   UNL     1      -2.871   1.405 -10.905  0.00  0.00    +0.000 HD
BRANCH   3  12
ATOM     12  C   UNL     1       0.892   3.816  -8.100  0.00  0.00    +0.000 C 
ATOM     13  O   UNL     1       1.439   3.262  -7.169  0.00  0.00    +0.000 OA
ATOM     14  OXT UNL     1       1.238   5.074  -8.433  0.00  0.00    +0.000 OA
ENDBRANCH   3  12
ENDBRANCH   1   2
BRANCH   1  20
ATOM     15  C   UNL     1      -0.302   0.782  -3.872  0.00  0.00    +0.000 C 
ATOM     16  C   UNL     1      -1.646   0.051  -3.920  0.00  0.00    +0.000 C 
ATOM     17  C   UNL     1      -2.461   0.576  -5.105  0.00  0.00    +0.000 C 
ATOM     18  C   UNL     1      -1.663   0.375  -6.395  0.00  0.00    +0.000 C 
ATOM     19  C   UNL     1       0.434   0.576  -5.198  0.00  0.00    +0.000 C 
ATOM     20  N   UNL     1      -0.393   1.123  -6.295  0.00  0.00    +0.000 N 
ATOM     21  H   UNL     1      -0.602   2.111  -6.093  0.00  0.00    +0.000 HD
BRANCH  15  22
ATOM     22  C   UNL     1       0.531   0.230  -2.744  0.00  0.00    +0.000 C 
ATOM     23  O   UNL     1       1.603  -0.277  -2.976  0.00  0.00    +0.000 OA
BRANCH  22  24
ATOM     24  O   UNL     1       0.082   0.301  -1.481  0.00  0.00    +0.000 OA
BRANCH  24  26
ATOM     25  C   UNL     1       0.263  -0.080   0.918  0.00  0.00    +0.000 C 
ATOM     26  C   UNL     1       0.937  -0.251  -0.445  0.00  0.00    +0.000 C 
ENDBRANCH  24  26
ENDBRANCH  22  24
ENDBRANCH  15  22
ENDBRANCH   1  20
TORSDOF 6
ENDMDL
MODEL     1096
REMARK  Name = ZINC19831002
REMARK  4 active torsions:
REMARK  status: ('A' for Active; 'I' for Inactive)
REMARK    1  A    between atoms: N_13  and  C_14
REMARK    2  A    between atoms: C_14  and  C_15
REMARK    3  A    between atoms: N_18  and  C_19
REMARK    4  A    between atoms: C_19  and  C_20
REMARK                            x       y       z     vdW  Elec       q    Type
REMARK                         _______ _______ _______ _____ _____    ______ ____
ROOT
ATOM      1  C   UNL     1       0.475   4.038  -0.995  0.00  0.00    +0.000 C 
ATOM      2  C   UNL     1       1.291   3.442   0.155  0.00  0.00    +0.000 C 
ATOM      3  C   UNL     1       1.347   1.921  -0.001  0.00  0.00    +0.000 C 
ATOM      4  N   UNL     1      -0.017   1.376   0.010  0.00  0.00    +0.000 N 
ATOM      5  C   UNL     1      -0.805   1.898  -1.114  0.00  0.00    +0.000 C 
ATOM      6  C   UNL     1      -0.925   3.418  -0.992  0.00  0.00    +0.000 C 
ATOM      7  C   UNL     1       0.002  -0.004   0.002  0.00  0.00    +0.000 A 
ATOM      8  N   UNL     1       1.162  -0.653  -0.018  0.00  0.00    +0.000 NA
ATOM      9  C   UNL     1       1.180  -1.982  -0.020  0.00  0.00    +0.000 A 
ATOM     10  N   UNL     1       0.038  -2.663  -0.013  0.00  0.00    +0.000 N 
ATOM     11  C   UNL     1      -1.122  -2.014   0.002  0.00  0.00    +0.000 A 
ATOM     12  N   UNL     1      -1.140  -0.684   0.009  0.00  0.00    +0.000 NA
ATOM     13  N   UNL     1      -2.308  -2.720   0.009  0.00  0.00    +0.000 N 
ATOM     14  N   UNL     1       2.385  -2.656  -0.036  0.00  0.00    +0.000 N 
ATOM     15  H   UNL     1       0.052  -3.692  -0.019  0.00  0.00    +0.000 HD
ATOM     16  H   UNL     1      -3.207  -2.217   0.021  0.00  0.00    +0.000 HD
ATOM     17  H   UNL     1       3.269  -2.129  -0.041  0.00  0.00    +0.000 HD
ENDROOT
BRANCH  13  18
ATOM     18  C   UNL     1      -2.288  -4.185   0.002  0.00  0.00    +0.000 C 
BRANCH  18  19
ATOM     19  C   UNL     1      -3.702  -4.706   0.012  0.00  0.00    +0.000 C 
ATOM     20  O   UNL     1      -4.630  -3.934   0.025  0.00  0.00    +0.000 OA
ATOM     21  O   UNL     1      -3.929  -6.029   0.007  0.00  0.00    +0.000 OA
ENDBRANCH  18  19
ENDBRANCH  13  18
BRANCH  14  22
ATOM     22  C   UNL     1       2.405  -4.121  -0.044  0.00  0.00    +0.000 C 
BRANCH  22  23
ATOM     23  C   UNL     1       3.832  -4.604  -0.061  0.00  0.00    +0.000 C 
ATOM     24  O   UNL     1       4.739  -3.806  -0.065  0.00  0.00    +0.000 OA
ATOM     25  O   UNL     1       4.095  -5.920  -0.071  0.00  0.00    +0.000 OA
ENDBRANCH  22  23
ENDBRANCH  14  22
TORSDOF 4
ENDMDL
MODEL     1097
REMARK  Name = ZINC22034897
REMARK  8 active torsions:
REMARK  status: ('A' for Active; 'I' for Inactive)
REMARK    1  A    between atoms: C_4  and  C_7
REMARK    2  A    between atoms: C_7  and  N_8
REMARK    3  A    between atoms: N_11  and  C_14
REMARK    4  A    between atoms: C_14  and  C_15
REMARK    5  A    between atoms: C_15  and  C_16
REMARK    6  A    between atoms: C_15  and  O_22
REMARK    7  A    between atoms: C_16  and  N_17
REMARK    8  A    between atoms: N_17  and  S_18
REMARK                            x       y       z     vdW  Elec       q    Type
REMARK                         _______ _______ _______ _____ _____    ______ ____
ROOT
ATOM      1  N   UNL     1       0.503   4.059  -1.041  0.00  0.00    +0.000 N 
ATOM      2  C   UNL     1       1.284   3.537   0.089  0.00  0.00    +0.000 C 
ATOM      3  C   UNL     1       1.347   2.010   0.000  0.00  0.00    +0.000 C 
ATOM      4  N   UNL     1      -0.018   1.465   0.010  0.00  0.00    +0.000 NA
ATOM      5  C   UNL     1      -0.799   1.987  -1.120  0.00  0.00    +0.000 C 
ATOM      6  C   UNL     1      -0.862   3.514  -1.031  0.00  0.00    +0.000 C 
ATOM      7  H   UNL     1       0.961   3.754  -1.912  0.00  0.00    +0.000 HD
ENDROOT
BRANCH   4   8
ATOM      8  C   UNL     1       0.002  -0.004   0.002  0.00  0.00    +0.000 C 
BRANCH   8   9
ATOM      9  C   UNL     1      -1.409  -0.535   0.263  0.00  0.00    +0.000 C 
BRANCH   9  10
ATOM     10  O   UNL     1      -1.864  -0.071   1.536  0.00  0.00    +0.000 OA
ATOM     11  H   UNL     1      -1.878   0.918   1.542  0.00  0.00    +0.000 HD
ENDBRANCH   9  10
BRANCH   9  12
ATOM     12  C   UNL     1      -1.388  -2.064   0.255  0.00  0.00    +0.000 C 
BRANCH  12  13
ATOM     13  N   UNL     1      -2.756  -2.572   0.386  0.00  0.00    +0.000 NA
ATOM     14  H   UNL     1      -3.512  -1.943   0.694  0.00  0.00    +0.000 HD
BRANCH  13  15
ATOM     15  S   UNL     1      -3.088  -4.157   0.038  0.00  0.00    +0.000 S 
ATOM     16  O   UNL     1      -4.475  -4.345   0.284  0.00  0.00    +0.000 OA
ATOM     17  O   UNL     1      -2.494  -4.429  -1.224  0.00  0.00    +0.000 OA
ATOM     18  O   UNL     1      -2.346  -5.006   1.060  0.00  0.00    +0.000 OA
ENDBRANCH  13  15
ENDBRANCH  12  13
ENDBRANCH   9  12
ENDBRANCH   8   9
ENDBRANCH   4   8
BRANCH   1  19
ATOM     19  C   UNL     1       0.483   5.528  -1.033  0.00  0.00    +0.000 C 
BRANCH  19  23
ATOM     20  C   UNL     1      -2.351   6.930  -3.905  0.00  0.00    +0.000 A 
ATOM     21  C   UNL     1      -2.749   6.687  -2.603  0.00  0.00    +0.000 A 
ATOM     22  C   UNL     1      -1.832   6.233  -1.674  0.00  0.00    +0.000 A 
ATOM     23  C   UNL     1      -0.517   6.022  -2.046  0.00  0.00    +0.000 A 
ATOM     24  C   UNL     1      -0.118   6.271  -3.346  0.00  0.00    +0.000 A 
ATOM     25  C   UNL     1      -1.036   6.720  -4.277  0.00  0.00    +0.000 A 
ENDBRANCH  19  23
ENDBRANCH   1  19
TORSDOF 8
ENDMDL
MODEL     1098
REMARK  Name = ZINC06535546
REMARK  8 active torsions:
REMARK  status: ('A' for Active; 'I' for Inactive)
REMARK    1  A    between atoms: C_3  and  O_21
REMARK    2  A    between atoms: C_6  and  C_7
REMARK    3  A    between atoms: C_7  and  C_8
REMARK    4  A    between atoms: C_8  and  N_22
REMARK    5  A    between atoms: C_9  and  N_22
REMARK    6  A    between atoms: C_10  and  C_11
REMARK    7  A    between atoms: CA_13  and  C_19
REMARK    8  A    between atoms: CA_15  and  C_17
REMARK                            x       y       z     vdW  Elec       q    Type
REMARK                         _______ _______ _______ _____ _____    ______ ____
ROOT
ATOM      1  C   UNL     1       2.336   4.648  -3.085  0.00  0.00    +0.000 C 
ATOM      2  C   UNL     1       3.301   4.069  -2.335  0.00  0.00    +0.000 C 
ENDROOT
BRANCH   2   3
ATOM      3  C   UNL     1       2.982   2.987  -1.491  0.00  0.00    +0.000 C 
ATOM      4  C   UNL     1       3.947   2.399  -0.733  0.00  0.00    +0.000 C 
ATOM      5  CA  UNL     1       3.604   1.335   0.134  0.00  0.00    +0.000 C 
ATOM      6  N   UNL     1       2.363   1.109   0.464  0.00  0.00    +0.000 NA
ATOM      7  CA  UNL     1       1.280   1.975   0.000  0.00  0.00    +0.000 C 
ATOM      8  C   UNL     1       1.570   2.464  -1.419  0.00  0.00    +0.000 C 
BRANCH   7   9
ATOM      9  C   UNL     1      -0.014   1.204   0.009  0.00  0.00    +0.000 C 
ATOM     10  O   UNL     1       0.002  -0.004   0.002  0.00  0.00    +0.000 OA
ATOM     11  OXT UNL     1      -1.186   1.859   0.018  0.00  0.00    +0.000 OA
ENDBRANCH   7   9
BRANCH   5  12
ATOM     12  C   UNL     1       4.677   0.460   0.678  0.00  0.00    +0.000 C 
ATOM     13  O   UNL     1       5.835   0.662   0.377  0.00  0.00    +0.000 OA
ATOM     14  OXT UNL     1       4.363  -0.556   1.503  0.00  0.00    +0.000 OA
ENDBRANCH   5  12
ENDBRANCH   2   3
BRANCH   1  15
ATOM     15  N   UNL     1       2.714   5.724  -3.909  0.00  0.00    +0.000 NA
ATOM     16  H   UNL     1       3.453   5.401  -4.550  0.00  0.00    +0.000 HD
ATOM     17  H   UNL     1       3.128   6.458  -3.316  0.00  0.00    +0.000 HD
BRANCH  15  18
ATOM     18  C   UNL     1       1.601   6.327  -4.719  0.00  0.00    +0.000 C 
BRANCH  18  19
ATOM     19  C   UNL     1       2.207   7.468  -5.538  0.00  0.00    +0.000 C 
BRANCH  19  25
ATOM     20  C   UNL     1       0.879   7.648  -7.651  0.00  0.00    +0.000 A 
ATOM     21  C   UNL     1      -0.110   8.233  -8.418  0.00  0.00    +0.000 A 
ATOM     22  C   UNL     1      -0.841   9.298  -7.910  0.00  0.00    +0.000 A 
ATOM     23  C   UNL     1      -0.581   9.767  -6.630  0.00  0.00    +0.000 A 
ATOM     24  C   UNL     1       0.405   9.174  -5.865  0.00  0.00    +0.000 A 
ATOM     25  C   UNL     1       1.132   8.113  -6.374  0.00  0.00    +0.000 A 
BRANCH  22  26
ATOM     26  O   UNL     1      -1.810   9.880  -8.664  0.00  0.00    +0.000 OA
ATOM     27  H   UNL     1      -2.423   9.141  -8.905  0.00  0.00    +0.000 HD
ENDBRANCH  22  26
ENDBRANCH  19  25
ENDBRANCH  18  19
ENDBRANCH  15  18
ENDBRANCH   1  15
TORSDOF 8
ENDMDL
MODEL     1099
REMARK  Name = ZINC31998538
REMARK  9 active torsions:
REMARK  status: ('A' for Active; 'I' for Inactive)
REMARK    1  A    between atoms: C_1  and  C_2
REMARK    2  A    between atoms: C_2  and  O_3
REMARK    3  A    between atoms: O_3  and  P_4
REMARK    4  A    between atoms: P_4  and  C_6
REMARK    5  A    between atoms: C_6  and  O_7
REMARK    6  A    between atoms: O_7  and  C_8
REMARK    7  A    between atoms: C_8  and  C_9
REMARK    8  A    between atoms: C_9  and  N_10
REMARK    9  A    between atoms: C_13  and  N_17
REMARK                            x       y       z     vdW  Elec       q    Type
REMARK                         _______ _______ _______ _____ _____    ______ ____
ROOT
ATOM      1  N   UNL     1      -0.018   1.461   0.010  0.00  0.00    +0.000 N 
ATOM      2  C   UNL     1      -1.125   2.263   0.019  0.00  0.00    +0.000 A 
ATOM      3  C   UNL     1      -0.647   3.585   0.027  0.00  0.00    +0.000 A 
ATOM      4  C   UNL     1      -1.594   4.629   0.041  0.00  0.00    +0.000 A 
ATOM      5  N   UNL     1      -2.884   4.315   0.036  0.00  0.00    +0.000 NA
ATOM      6  C   UNL     1      -3.283   3.056   0.031  0.00  0.00    +0.000 A 
ATOM      7  N   UNL     1      -2.438   2.047   0.023  0.00  0.00    +0.000 NA
ATOM      8  N   UNL     1       0.696   3.538   0.014  0.00  0.00    +0.000 NA
ATOM      9  N   UNL     1       1.096   2.314   0.004  0.00  0.00    +0.000 NA
ENDROOT
BRANCH   4  10
ATOM     10  N   UNL     1      -1.189   5.950   0.044  0.00  0.00    +0.000 N 
ATOM     11  H   UNL     1      -0.183   6.171   0.036  0.00  0.00    +0.000 HD
ATOM     12  H   UNL     1      -1.885   6.709   0.054  0.00  0.00    +0.000 HD
ENDBRANCH   4  10
BRANCH   1  13
ATOM     13  C   UNL     1       0.002  -0.004   0.002  0.00  0.00    +0.000 C 
BRANCH  13  14
ATOM     14  C   UNL     1       0.022  -0.522   1.442  0.00  0.00    +0.000 C 
BRANCH  14  15
ATOM     15  O   UNL     1       0.042  -1.951   1.434  0.00  0.00    +0.000 OA
BRANCH  15  16
ATOM     16  C   UNL     1       0.061  -2.539   2.736  0.00  0.00    +0.000 C 
BRANCH  16  17
ATOM     17  P   UNL     1      -1.594  -2.406   3.488  0.00  0.00    +0.000 P 
ATOM     18  O   UNL     1      -2.579  -3.116   2.641  0.00  0.00    +0.000 OA
ATOM     19  O   UNL     1      -2.007  -0.855   3.606  0.00  0.00    +0.000 OA
BRANCH  17  20
ATOM     20  O   UNL     1      -1.572  -3.069   4.955  0.00  0.00    +0.000 OA
BRANCH  20  22
ATOM     21  C   UNL     1      -2.369  -3.880   7.087  0.00  0.00    +0.000 C 
ATOM     22  C   UNL     1      -2.743  -3.216   5.761  0.00  0.00    +0.000 C 
ENDBRANCH  20  22
ENDBRANCH  17  20
ENDBRANCH  16  17
ENDBRANCH  15  16
ENDBRANCH  14  15
ENDBRANCH  13  14
ENDBRANCH   1  13
TORSDOF 8
ENDMDL
MODEL     1100
REMARK  Name = ZINC20673391
REMARK  6 active torsions:
REMARK  status: ('A' for Active; 'I' for Inactive)
REMARK    1  A    between atoms: C_1  and  C_2
REMARK    2  A    between atoms: C_2  and  O_3
REMARK    3  A    between atoms: O_3  and  C_4
REMARK    4  A    between atoms: C_9  and  N_10
REMARK    5  A    between atoms: C_11  and  C_13
REMARK    6  A    between atoms: C_13  and  C_14
REMARK                            x       y       z     vdW  Elec       q    Type
REMARK                         _______ _______ _______ _____ _____    ______ ____
ROOT
ATOM      1  C   UNL     1       4.273   5.454   0.325  0.00  0.00    +0.000 C 
ATOM      2  C   UNL     1       4.535   3.957   0.215  0.00  0.00    +0.000 C 
ATOM      3  O   UNL     1       5.653   3.479   0.212  0.00  0.00    +0.000 OA
ATOM      4  N   UNL     1       3.451   3.231   0.125  0.00  0.00    +0.000 NA
ATOM      5  C   UNL     1       2.224   3.724   0.125  0.00  0.00    +0.000 C 
ATOM      6  S   UNL     1       2.437   5.442   0.259  0.00  0.00    +0.000 S 
ATOM      7  N   UNL     1       1.046   3.033   0.034  0.00  0.00    +0.000 N 
ATOM      8  C   UNL     1       1.054   1.652   0.032  0.00  0.00    +0.000 C 
ATOM      9  N   UNL     1       2.185   1.008   0.017  0.00  0.00    +0.000 N 
ATOM     10  N   UNL     1      -0.132   0.958   0.045  0.00  0.00    +0.000 N 
ATOM     11  H   UNL     1       0.153   3.542  -0.033  0.00  0.00    +0.000 HD
ATOM     12  H   UNL     1       3.074   1.528   0.007  0.00  0.00    +0.000 HD
ATOM     13  H   UNL     1       2.192  -0.022   0.016  0.00  0.00    +0.000 HD
ATOM     14  H   UNL     1      -1.027   1.467   0.057  0.00  0.00    +0.000 HD
ATOM     15  H   UNL     1      -0.126  -0.072   0.044  0.00  0.00    +0.000 HD
ENDROOT
BRANCH   1  16
ATOM     16  C   UNL     1       4.786   6.016   1.652  0.00  0.00    +0.000 C 
BRANCH  16  18
ATOM     17  N   UNL     1       5.003   8.227   2.739  0.00  0.00    +0.000 N 
ATOM     18  C   UNL     1       4.617   7.513   1.663  0.00  0.00    +0.000 C 
ATOM     19  O   UNL     1       4.134   8.076   0.703  0.00  0.00    +0.000 OA
ATOM     20  H   UNL     1       5.349   7.745   3.580  0.00  0.00    +0.000 HD
BRANCH  17  26
ATOM     21  C   UNL     1       5.889  10.386   3.383  0.00  0.00    +0.000 A 
ATOM     22  C   UNL     1       5.817  11.770   3.348  0.00  0.00    +0.000 A 
ATOM     23  C   UNL     1       4.793  12.393   2.661  0.00  0.00    +0.000 A 
ATOM     24  C   UNL     1       3.839  11.639   2.001  0.00  0.00    +0.000 A 
ATOM     25  C   UNL     1       3.907  10.259   2.025  0.00  0.00    +0.000 A 
ATOM     26  C   UNL     1       4.932   9.627   2.713  0.00  0.00    +0.000 A 
BRANCH  21  27
ATOM     27  O   UNL     1       6.893   9.772   4.063  0.00  0.00    +0.000 OA
BRANCH  27  29
ATOM     28  C   UNL     1       8.884   9.751   5.432  0.00  0.00    +0.000 C 
ATOM     29  C   UNL     1       7.837  10.615   4.726  0.00  0.00    +0.000 C 
ENDBRANCH  27  29
ENDBRANCH  21  27
ENDBRANCH  17  26
ENDBRANCH  16  18
ENDBRANCH   1  16
TORSDOF 5
ENDMDL
MODEL     1101
REMARK  Name = ZINC32081657
REMARK  9 active torsions:
REMARK  status: ('A' for Active; 'I' for Inactive)
REMARK    1  A    between atoms: C_1  and  C_2
REMARK    2  A    between atoms: C_2  and  O_3
REMARK    3  A    between atoms: O_3  and  C_4
REMARK    4  A    between atoms: N_6  and  N_7
REMARK    5  A    between atoms: N_7  and  S_8
REMARK    6  A    between atoms: S_8  and  C_11
REMARK    7  A    between atoms: C_14  and  O_20
REMARK    8  A    between atoms: C_15  and  C_17
REMARK    9  A    between atoms: O_20  and  C_21
REMARK                            x       y       z     vdW  Elec       q    Type
REMARK                         _______ _______ _______ _____ _____    ______ ____
ROOT
ATOM      1  C   UNL     1      -1.507   2.771  -1.433  0.00  0.00    +0.000 A 
ATOM      2  C   UNL     1      -1.021   4.068  -1.397  0.00  0.00    +0.000 A 
ATOM      3  C   UNL     1      -1.050   4.857  -2.530  0.00  0.00    +0.000 A 
ATOM      4  C   UNL     1      -1.578   4.358  -3.711  0.00  0.00    +0.000 A 
ATOM      5  C   UNL     1      -2.076   3.048  -3.751  0.00  0.00    +0.000 A 
ATOM      6  C   UNL     1      -2.035   2.259  -2.599  0.00  0.00    +0.000 A 
ENDROOT
BRANCH   5   7
ATOM      7  C   UNL     1      -2.639   2.506  -5.002  0.00  0.00    +0.000 C 
ATOM      8  O   UNL     1      -2.673   3.196  -6.003  0.00  0.00    +0.000 OA
ATOM      9  N   UNL     1      -3.116   1.246  -5.036  0.00  0.00    +0.000 N 
ATOM     10  H   UNL     1      -3.088   0.662  -4.188  0.00  0.00    +0.000 HD
ATOM     11  H   UNL     1      -3.510   0.868  -5.909  0.00  0.00    +0.000 HD
ENDBRANCH   5   7
BRANCH   1  12
ATOM     12  S   UNL     1      -1.456   1.774   0.019  0.00  0.00    +0.000 S 
ATOM     13  O   UNL     1      -2.472   0.792  -0.128  0.00  0.00    +0.000 OA
ATOM     14  O   UNL     1      -1.413   2.667   1.123  0.00  0.00    +0.000 OA
BRANCH  12  15
ATOM     15  N   UNL     1      -0.011   0.966   0.007  0.00  0.00    +0.000 NA
BRANCH  15  18
ATOM     16  C   UNL     1       2.123   1.447   0.946  0.00  0.00    +0.000 C 
ATOM     17  O   UNL     1       3.167   2.069   0.939  0.00  0.00    +0.000 OA
ATOM     18  N   UNL     1       1.193   1.683  -0.000  0.00  0.00    +0.000 N 
ATOM     19  H   UNL     1       1.366   2.390  -0.729  0.00  0.00    +0.000 HD
BRANCH  16  20
ATOM     20  O   UNL     1       1.896   0.523   1.898  0.00  0.00    +0.000 OA
BRANCH  20  22
ATOM     21  C   UNL     1       2.507  -0.758   3.877  0.00  0.00    +0.000 C 
ATOM     22  C   UNL     1       2.942   0.322   2.885  0.00  0.00    +0.000 C 
ENDBRANCH  20  22
ENDBRANCH  16  20
ENDBRANCH  15  18
ENDBRANCH  12  15
ENDBRANCH   1  12
BRANCH   4  23
ATOM     23  O   UNL     1      -1.612   5.133  -4.824  0.00  0.00    +0.000 OA
ATOM     24  C   UNL     1      -1.087   6.457  -4.708  0.00  0.00    +0.000 C 
ENDBRANCH   4  23
TORSDOF 7
ENDMDL
MODEL     1102
REMARK  Name = ZINC05258621
REMARK  8 active torsions:
REMARK  status: ('A' for Active; 'I' for Inactive)
REMARK    1  A    between atoms: C_4  and  N_9
REMARK    2  A    between atoms: C_5  and  C_7
REMARK    3  A    between atoms: C_10  and  C_12
REMARK    4  A    between atoms: C_12  and  C_13
REMARK    5  A    between atoms: C_13  and  C_14
REMARK    6  A    between atoms: C_13  and  N_24
REMARK    7  A    between atoms: C_16  and  C_17
REMARK    8  A    between atoms: C_16  and  N_24
REMARK                            x       y       z     vdW  Elec       q    Type
REMARK                         _______ _______ _______ _____ _____    ______ ____
ROOT
ATOM      1  C   UNK A   1       1.114   5.512   1.436  0.00  0.00    +0.000 C 
ENDROOT
BRANCH   1   2
ATOM      2  N   UNK A   1       1.133   4.038   1.398  0.00  0.00    +0.000 N 
ATOM      3  H   UNK A   1       1.979   3.694   1.873  0.00  0.00    +0.000 HD
ATOM      4  H   UNK A   1       0.301   3.672   1.883  0.00  0.00    +0.000 HD
BRANCH   2   5
ATOM      5  C   UNK A   0       1.130   3.562   0.001  0.00  0.00    +0.000 C 
BRANCH   5   6
ATOM      6  C   UNK A   0       1.150   2.055  -0.007  0.00  0.00    +0.000 A 
ATOM      7  C   UNK A   0       2.355   1.369  -0.018  0.00  0.00    +0.000 A 
ATOM      8  C   UNK A   0       2.324  -0.018  -0.025  0.00  0.00    +0.000 A 
ATOM      9  C   UNK A   0       1.103  -0.664  -0.021  0.00  0.00    +0.000 A 
ATOM     10  N   UNK A   0      -0.024   0.021  -0.010  0.00  0.00    +0.000 NA
ATOM     11  C   UNK A   0      -0.033   1.340  -0.004  0.00  0.00    +0.000 A 
ENDBRANCH   5   6
ENDBRANCH   2   5
ENDBRANCH   1   2
BRANCH   1  12
ATOM     12  C   UNK A   1      -0.309   6.000   1.337  0.00  0.00    +0.000 C 
ATOM     13  O   UNK A   1      -1.214   5.206   1.238  0.00  0.00    +0.000 OA
ATOM     14  O   UNK A   1      -0.570   7.316   1.360  0.00  0.00    +0.000 OA
ENDBRANCH   1  12
BRANCH   1  15
ATOM     15  C   UNK A   1       1.725   5.988   2.756  0.00  0.00    +0.000 C 
BRANCH  15  17
ATOM     16  N   UNK A   1       3.930   5.925   3.876  0.00  0.00    +0.000 N 
ATOM     17  C   UNK A   1       3.182   5.606   2.800  0.00  0.00    +0.000 C 
ATOM     18  O   UNK A   1       3.683   5.012   1.869  0.00  0.00    +0.000 OA
ATOM     19  H   UNK A   1       3.524   6.489   4.636  0.00  0.00    +0.000 HD
BRANCH  16  23
ATOM     20  C   UNK A   1       7.886   4.625   4.123  0.00  0.00    +0.000 A 
ATOM     21  C   UNK A   1       7.340   4.972   2.898  0.00  0.00    +0.000 A 
ATOM     22  C   UNK A   1       6.029   5.398   2.813  0.00  0.00    +0.000 A 
ATOM     23  C   UNK A   1       5.252   5.490   3.959  0.00  0.00    +0.000 A 
ATOM     24  C   UNK A   1       5.801   5.140   5.201  0.00  0.00    +0.000 A 
ATOM     25  C   UNK A   1       7.128   4.706   5.271  0.00  0.00    +0.000 A 
BRANCH  24  26
ATOM     26  C   UNK A   1       5.008   5.225   6.390  0.00  0.00    +0.000 C 
ATOM     27  N   UNK A   1       4.379   5.293   7.333  0.00  0.00    +0.000 NA
ENDBRANCH  24  26
ENDBRANCH  16  23
ENDBRANCH  15  17
ENDBRANCH   1  15
TORSDOF 8
ENDMDL
MODEL     1103
REMARK  Name = ZINC20011882
REMARK  11 active torsions:
REMARK  status: ('A' for Active; 'I' for Inactive)
REMARK    1  A    between atoms: C_1  and  C_2
REMARK    2  A    between atoms: C_2  and  N_3
REMARK    3  A    between atoms: N_3  and  C_4
REMARK    4  A    between atoms: N_3  and  C_6
REMARK    5  A    between atoms: C_4  and  C_5
REMARK    6  A    between atoms: C_6  and  C_7
REMARK    7  A    between atoms: C_7  and  N_8
REMARK    8  A    between atoms: N_8  and  S_9
REMARK    9  A    between atoms: S_9  and  C_12
REMARK   10  A    between atoms: C_15  and  O_21
REMARK   11  A    between atoms: C_16  and  C_18
REMARK                            x       y       z     vdW  Elec       q    Type
REMARK                         _______ _______ _______ _____ _____    ______ ____
ROOT
ATOM      1  S   UNL     1      -1.505   3.797  -0.632  0.00  0.00    +0.000 S 
ATOM      2  O   UNL     1      -2.440   3.094   0.175  0.00  0.00    +0.000 OA
ATOM      3  O   UNL     1      -0.934   5.035  -0.234  0.00  0.00    +0.000 OA
ENDROOT
BRANCH   1   4
ATOM      4  C   UNL     1      -0.163   2.693  -0.923  0.00  0.00    +0.000 A 
ATOM      5  C   UNL     1      -0.365   1.325  -0.845  0.00  0.00    +0.000 A 
ATOM      6  C   UNL     1       0.680   0.450  -1.066  0.00  0.00    +0.000 A 
ATOM      7  C   UNL     1       1.940   0.938  -1.378  0.00  0.00    +0.000 A 
ATOM      8  C   UNL     1       2.148   2.321  -1.464  0.00  0.00    +0.000 A 
ATOM      9  C   UNL     1       1.083   3.196  -1.233  0.00  0.00    +0.000 A 
BRANCH   8  10
ATOM     10  C   UNL     1       3.483   2.851  -1.795  0.00  0.00    +0.000 C 
ATOM     11  O   UNL     1       4.408   2.088  -1.995  0.00  0.00    +0.000 OA
ATOM     12  O   UNL     1       3.679   4.182  -1.876  0.00  0.00    +0.000 OA
ENDBRANCH   8  10
BRANCH   7  13
ATOM     13  O   UNL     1       2.967   0.079  -1.601  0.00  0.00    +0.000 OA
ATOM     14  H   UNL     1       2.650  -0.512  -2.329  0.00  0.00    +0.000 HD
ENDBRANCH   7  13
ENDBRANCH   1   4
BRANCH   1  15
ATOM     15  N   UNL     1      -2.245   4.063  -2.090  0.00  0.00    +0.000 NA
ATOM     16  H   UNL     1      -2.234   5.005  -2.508  0.00  0.00    +0.000 HD
BRANCH  15  17
ATOM     17  C   UNL     1      -2.913   2.960  -2.784  0.00  0.00    +0.000 C 
BRANCH  17  18
ATOM     18  C   UNL     1      -3.816   3.523  -3.884  0.00  0.00    +0.000 C 
BRANCH  18  19
ATOM     19  N   UNL     1      -4.487   2.417  -4.581  0.00  0.00    +0.000 N 
ATOM     20  H   UNL     1      -3.765   1.743  -4.873  0.00  0.00    +0.000 HD
BRANCH  19  21
ATOM     21  C   UNL     1      -5.173   2.895  -5.788  0.00  0.00    +0.000 C 
ATOM     22  C   UNL     1      -5.518   1.703  -6.684  0.00  0.00    +0.000 C 
ENDBRANCH  19  21
BRANCH  19  24
ATOM     23  C   UNL     1      -6.496   2.697  -3.209  0.00  0.00    +0.000 C 
ATOM     24  C   UNL     1      -5.420   1.720  -3.686  0.00  0.00    +0.000 C 
ENDBRANCH  19  24
ENDBRANCH  18  19
ENDBRANCH  17  18
ENDBRANCH  15  17
ENDBRANCH   1  15
TORSDOF 9
ENDMDL
MODEL     1104
REMARK  Name = ZINC04593373
REMARK  6 active torsions:
REMARK  status: ('A' for Active; 'I' for Inactive)
REMARK    1  A    between atoms: C_6  and  C_19
REMARK    2  A    between atoms: C_6  and  N_22
REMARK    3  A    between atoms: C_12  and  C_14
REMARK    4  A    between atoms: C_14  and  C_15
REMARK    5  A    between atoms: C_15  and  C_16
REMARK    6  A    between atoms: C_16  and  C_17
REMARK                            x       y       z     vdW  Elec       q    Type
REMARK                         _______ _______ _______ _____ _____    ______ ____
ROOT
ATOM      1  C   UNL     1       2.988  -0.550   2.225  0.00  0.00    +0.000 C 
ATOM      2  C   UNL     1       2.429  -0.092   3.575  0.00  0.00    +0.000 C 
ATOM      3  C   UNL     1       3.257  -0.715   4.703  0.00  0.00    +0.000 C 
ATOM      4  N   UNL     1       4.672  -0.382   4.491  0.00  0.00    +0.000 N 
ATOM      5  C   UNL     1       5.285  -0.697   3.194  0.00  0.00    +0.000 C 
ATOM      6  C   UNL     1       4.435  -0.074   2.082  0.00  0.00    +0.000 C 
ATOM      7  C   UNL     1       5.394   0.203   5.468  0.00  0.00    +0.000 C 
ATOM      8  O   UNL     1       6.561   0.473   5.281  0.00  0.00    +0.000 OA
ENDROOT
BRANCH   1  14
ATOM      9  C   UNL     1       0.027   1.545  -0.040  0.00  0.00    +0.000 C 
ATOM     10  C   UNL     1       1.475   2.042  -0.049  0.00  0.00    +0.000 C 
ATOM     11  C   UNL     1       2.208   1.487   1.174  0.00  0.00    +0.000 C 
ATOM     12  C   UNL     1       0.797  -0.483   1.197  0.00  0.00    +0.000 C 
ATOM     13  C   UNL     1       0.022   0.013  -0.025  0.00  0.00    +0.000 C 
ATOM     14  N   UNL     1       2.188   0.010   1.116  0.00  0.00    +0.000 N 
ATOM     15  H   UNL     1       2.598  -0.294   0.221  0.00  0.00    +0.000 HD
ENDBRANCH   1  14
BRANCH   1  16
ATOM     16  C   UNL     1       2.944  -2.054   2.149  0.00  0.00    +0.000 C 
ATOM     17  O   UNL     1       2.883  -2.712   3.166  0.00  0.00    +0.000 OA
ATOM     18  N   UNL     1       2.973  -2.669   0.950  0.00  0.00    +0.000 N 
ATOM     19  H   UNL     1       3.024  -2.111   0.086  0.00  0.00    +0.000 HD
ATOM     20  H   UNL     1       2.943  -3.697   0.898  0.00  0.00    +0.000 HD
ENDBRANCH   1  16
BRANCH   7  21
ATOM     21  C   UNL     1       4.750   0.520   6.794  0.00  0.00    +0.000 C 
BRANCH  21  22
ATOM     22  C   UNL     1       5.780   1.174   7.717  0.00  0.00    +0.000 C 
BRANCH  22  23
ATOM     23  C   UNL     1       5.127   1.495   9.063  0.00  0.00    +0.000 C 
BRANCH  23  24
ATOM     24  C   UNL     1       6.141   2.140   9.972  0.00  0.00    +0.000 C 
ATOM     25  O   UNL     1       7.271   2.322   9.584  0.00  0.00    +0.000 OA
ATOM     26  O   UNL     1       5.790   2.510  11.214  0.00  0.00    +0.000 OA
ENDBRANCH  23  24
ENDBRANCH  22  23
ENDBRANCH  21  22
ENDBRANCH   7  21
TORSDOF 6
ENDMDL
MODEL     1105
REMARK  Name = ZINC04777692
REMARK  12 active torsions:
REMARK  status: ('A' for Active; 'I' for Inactive)
REMARK    1  A    between atoms: N_5  and  C_21
REMARK    2  A    between atoms: N_9  and  C_10
REMARK    3  A    between atoms: C_10  and  C_11
REMARK    4  A    between atoms: C_11  and  C_12
REMARK    5  A    between atoms: C_11  and  O_20
REMARK    6  A    between atoms: C_12  and  C_13
REMARK    7  A    between atoms: C_12  and  O_19
REMARK    8  A    between atoms: C_13  and  C_14
REMARK    9  A    between atoms: C_13  and  O_18
REMARK   10  A    between atoms: C_14  and  C_15
REMARK   11  A    between atoms: C_14  and  O_17
REMARK   12  A    between atoms: C_15  and  O_16
REMARK                            x       y       z     vdW  Elec       q    Type
REMARK                         _______ _______ _______ _____ _____    ______ ____
ROOT
ATOM      1  C   UNL     1      -0.092   2.746  -1.739  0.00  0.00    +0.000 C 
ENDROOT
BRANCH   1   2
ATOM      2  O   UNL     1       0.451   1.935  -2.783  0.00  0.00    +0.000 OA
ATOM      3  H   UNL     1       0.693   1.047  -2.419  0.00  0.00    +0.000 HD
ENDBRANCH   1   2
BRANCH   1   4
ATOM      4  C   UNL     1       0.949   2.916  -0.631  0.00  0.00    +0.000 C 
BRANCH   4  13
ATOM      5  C   UNL     1       2.476   1.338   0.535  0.00  0.00    +0.000 A 
ATOM      6  C   UNL     1       2.811  -0.097   0.487  0.00  0.00    +0.000 A 
ATOM      7  C   UNL     1       4.003  -0.803   0.599  0.00  0.00    +0.000 A 
ATOM      8  N   UNL     1       3.731  -2.080   0.488  0.00  0.00    +0.000 NA
ATOM      9  N   UNL     1       2.350  -2.251   0.300  0.00  0.00    +0.000 N 
ATOM     10  C   UNL     1       1.772  -1.035   0.294  0.00  0.00    +0.000 A 
ATOM     11  N   UNL     1       0.499  -0.621   0.146  0.00  0.00    +0.000 NA
ATOM     12  C   UNL     1       0.250   0.660   0.041  0.00  0.00    +0.000 A 
ATOM     13  N   UNL     1       1.219   1.617  -0.011  0.00  0.00    +0.000 N 
ATOM     14  C   UNL     1       1.656  -3.531   0.138  0.00  0.00    +0.000 C 
ATOM     15  N   UNL     1       3.235   2.315   1.029  0.00  0.00    +0.000 NA
ATOM     16  H   UNL     1       2.890   3.285   1.006  0.00  0.00    +0.000 HD
ENDBRANCH   4  13
ENDBRANCH   1   4
BRANCH   1  17
ATOM     17  C   UNL     1      -0.467   4.119  -2.301  0.00  0.00    +0.000 C 
BRANCH  17  18
ATOM     18  O   UNL     1      -1.010   4.929  -1.258  0.00  0.00    +0.000 OA
ATOM     19  H   UNL     1      -0.337   5.040  -0.540  0.00  0.00    +0.000 HD
ENDBRANCH  17  18
BRANCH  17  20
ATOM     20  C   UNL     1      -1.508   3.949  -3.410  0.00  0.00    +0.000 C 
BRANCH  20  21
ATOM     21  O   UNL     1      -0.965   3.138  -4.453  0.00  0.00    +0.000 OA
ATOM     22  H   UNL     1      -0.723   2.249  -4.090  0.00  0.00    +0.000 HD
ENDBRANCH  20  21
BRANCH  20  23
ATOM     23  C   UNL     1      -1.883   5.321  -3.973  0.00  0.00    +0.000 C 
BRANCH  23  24
ATOM     24  O   UNL     1      -2.426   6.132  -2.929  0.00  0.00    +0.000 OA
ATOM     25  H   UNL     1      -1.753   6.243  -2.211  0.00  0.00    +0.000 HD
ENDBRANCH  23  24
BRANCH  23  26
ATOM     26  C   UNL     1      -2.924   5.151  -5.081  0.00  0.00    +0.000 C 
BRANCH  26  27
ATOM     27  O   UNL     1      -3.188   6.419  -5.685  0.00  0.00    +0.000 OA
ATOM     28  H   UNL     1      -2.352   6.782  -6.072  0.00  0.00    +0.000 HD
ENDBRANCH  26  27
ENDBRANCH  23  26
ENDBRANCH  20  23
ENDBRANCH  17  20
ENDBRANCH   1  17
TORSDOF 11
ENDMDL
MODEL     1106
REMARK  Name = ZINC31607118
REMARK  9 active torsions:
REMARK  status: ('A' for Active; 'I' for Inactive)
REMARK    1  A    between atoms: C_1  and  N_2
REMARK    2  A    between atoms: N_2  and  S_3
REMARK    3  A    between atoms: S_3  and  C_6
REMARK    4  A    between atoms: C_9  and  C_11
REMARK    5  A    between atoms: N_13  and  C_14
REMARK    6  A    between atoms: C_14  and  C_15
REMARK    7  A    between atoms: C_15  and  N_16
REMARK    8  A    between atoms: N_16  and  S_17
REMARK    9  A    between atoms: S_17  and  C_20
REMARK                            x       y       z     vdW  Elec       q    Type
REMARK                         _______ _______ _______ _____ _____    ______ ____
ROOT
ATOM      1  C   UNL     1       1.436   4.427   0.012  0.00  0.00    +0.000 C 
ATOM      2  O   UNL     1       2.651   4.352   0.000  0.00  0.00    +0.000 OA
ATOM      3  N   UNL     1       0.835   5.633   0.024  0.00  0.00    +0.000 N 
ATOM      4  H   UNL     1      -0.193   5.696   0.035  0.00  0.00    +0.000 HD
ENDROOT
BRANCH   1   8
ATOM      5  C   UNL     1      -1.110   1.864   0.017  0.00  0.00    +0.000 A 
ATOM      6  C   UNL     1      -0.013   1.076   0.008  0.00  0.00    +0.000 A 
ATOM      7  C   UNL     1       1.105   1.925   0.002  0.00  0.00    +0.000 A 
ATOM      8  C   UNL     1       0.627   3.204   0.013  0.00  0.00    +0.000 A 
ATOM      9  O   UNL     1      -0.721   3.145   0.026  0.00  0.00    +0.000 OA
BRANCH   5  10
ATOM     10  S   UNL     1      -2.779   1.298   0.021  0.00  0.00    +0.000 S 
ATOM     11  O   UNL     1      -3.566   2.350  -0.521  0.00  0.00    +0.000 OA
ATOM     12  O   UNL     1      -2.767  -0.009  -0.537  0.00  0.00    +0.000 OA
BRANCH  10  14
ATOM     13  C   UNL     1      -3.322   2.312   2.469  0.00  0.00    +0.000 C 
ATOM     14  N   UNL     1      -3.236   1.132   1.604  0.00  0.00    +0.000 NA
ATOM     15  H   UNL     1      -3.461   0.200   1.980  0.00  0.00    +0.000 HD
ENDBRANCH  10  14
ENDBRANCH   5  10
ENDBRANCH   1   8
BRANCH   3  16
ATOM     16  C   UNL     1       1.643   6.854   0.023  0.00  0.00    +0.000 C 
BRANCH  16  17
ATOM     17  C   UNL     1       0.722   8.076   0.039  0.00  0.00    +0.000 C 
BRANCH  17  18
ATOM     18  N   UNL     1       1.531   9.297   0.037  0.00  0.00    +0.000 NA
ATOM     19  H   UNL     1       2.535   9.250   0.258  0.00  0.00    +0.000 HD
BRANCH  18  20
ATOM     20  S   UNL     1       0.829  10.755  -0.319  0.00  0.00    +0.000 S 
ATOM     21  O   UNL     1       1.892  11.695  -0.252  0.00  0.00    +0.000 OA
ATOM     22  O   UNL     1       0.134  10.533  -1.539  0.00  0.00    +0.000 OA
ATOM     23  C   UNL     1      -0.350  11.046   1.028  0.00  0.00    +0.000 C 
ENDBRANCH  18  20
ENDBRANCH  17  18
ENDBRANCH  16  17
ENDBRANCH   3  16
TORSDOF 7
ENDMDL
MODEL     1107
REMARK  Name = ZINC20005131
REMARK  8 active torsions:
REMARK  status: ('A' for Active; 'I' for Inactive)
REMARK    1  A    between atoms: C_3  and  N_11
REMARK    2  A    between atoms: C_5  and  S_7
REMARK    3  A    between atoms: S_7  and  N_10
REMARK    4  A    between atoms: N_11  and  S_12
REMARK    5  A    between atoms: S_12  and  C_15
REMARK    6  A    between atoms: C_15  and  C_16
REMARK    7  A    between atoms: C_16  and  C_17
REMARK    8  A    between atoms: C_17  and  C_18
REMARK                            x       y       z     vdW  Elec       q    Type
REMARK                         _______ _______ _______ _____ _____    ______ ____
ROOT
ATOM      1  C   UNL     1      -4.038   0.184   1.367  0.00  0.00    +0.000 A 
ATOM      2  C   UNL     1      -2.896   0.847   0.963  0.00  0.00    +0.000 A 
ATOM      3  C   UNL     1      -1.897   1.131   1.885  0.00  0.00    +0.000 A 
ATOM      4  C   UNL     1      -2.054   0.755   3.213  0.00  0.00    +0.000 A 
ATOM      5  C   UNL     1      -3.200   0.096   3.611  0.00  0.00    +0.000 A 
ATOM      6  C   UNL     1      -4.191  -0.189   2.690  0.00  0.00    +0.000 A 
ENDROOT
BRANCH   5   7
ATOM      7  S   UNL     1      -3.400  -0.381   5.295  0.00  0.00    +0.000 S 
ATOM      8  O   UNL     1      -4.317  -1.466   5.304  0.00  0.00    +0.000 OA
ATOM      9  O   UNL     1      -2.094  -0.483   5.847  0.00  0.00    +0.000 OA
BRANCH   7  10
ATOM     10  N   UNL     1      -4.146   0.875   6.075  0.00  0.00    +0.000 NA
ATOM     11  H   UNL     1      -5.022   0.713   6.593  0.00  0.00    +0.000 HD
ATOM     12  H   UNL     1      -3.734   1.819   6.043  0.00  0.00    +0.000 HD
ENDBRANCH   7  10
ENDBRANCH   5   7
BRANCH   3  13
ATOM     13  N   UNL     1      -0.739   1.799   1.478  0.00  0.00    +0.000 N 
ATOM     14  H   UNL     1      -0.609   2.793   1.712  0.00  0.00    +0.000 HD
BRANCH  13  15
ATOM     15  S   UNL     1       0.425   0.990   0.621  0.00  0.00    +0.000 S 
ATOM     16  O   UNL     1       1.440   1.957   0.388  0.00  0.00    +0.000 OA
ATOM     17  O   UNL     1      -0.272   0.395  -0.464  0.00  0.00    +0.000 OA
BRANCH  15  18
ATOM     18  C   UNL     1       1.032  -0.291   1.753  0.00  0.00    +0.000 C 
BRANCH  18  19
ATOM     19  C   UNL     1       2.039  -1.181   1.022  0.00  0.00    +0.000 C 
BRANCH  19  20
ATOM     20  C   UNL     1       2.550  -2.262   1.977  0.00  0.00    +0.000 C 
BRANCH  20  21
ATOM     21  C   UNL     1       3.543  -3.139   1.257  0.00  0.00    +0.000 C 
ATOM     22  O   UNL     1       3.813  -2.922   0.100  0.00  0.00    +0.000 OA
ATOM     23  O   UNL     1       4.126  -4.162   1.902  0.00  0.00    +0.000 OA
ENDBRANCH  20  21
ENDBRANCH  19  20
ENDBRANCH  18  19
ENDBRANCH  15  18
ENDBRANCH  13  15
ENDBRANCH   3  13
TORSDOF 8
ENDMDL
MODEL     1108
REMARK  Name = ZINC15418382
REMARK  11 active torsions:
REMARK  status: ('A' for Active; 'I' for Inactive)
REMARK    1  A    between atoms: C_1  and  O_2
REMARK    2  A    between atoms: O_2  and  C_3
REMARK    3  A    between atoms: C_5  and  C_13
REMARK    4  A    between atoms: C_7  and  O_11
REMARK    5  A    between atoms: C_8  and  O_9
REMARK    6  A    between atoms: O_9  and  C_10
REMARK    7  A    between atoms: O_11  and  C_12
REMARK    8  A    between atoms: C_16  and  C_19
REMARK    9  A    between atoms: C_19  and  C_20
REMARK   10  A    between atoms: C_19  and  N_24
REMARK   11  A    between atoms: C_20  and  C_21
REMARK                            x       y       z     vdW  Elec       q    Type
REMARK                         _______ _______ _______ _____ _____    ______ ____
ROOT
ATOM      1  C   UNL     1       1.115   2.011   0.002  0.00  0.00    +0.000 A 
ATOM      2  N   UNL     1      -0.016   1.318   0.009  0.00  0.00    +0.000 NA
ATOM      3  C   UNL     1       0.002  -0.004   0.002  0.00  0.00    +0.000 A 
ATOM      4  C   UNL     1       1.222  -0.664  -0.013  0.00  0.00    +0.000 A 
ATOM      5  C   UNL     1       2.385   0.091  -0.020  0.00  0.00    +0.000 A 
ATOM      6  N   UNL     1       2.297   1.410  -0.012  0.00  0.00    +0.000 NA
ENDROOT
BRANCH   1   9
ATOM      7  C   UNL     1       2.177   5.620   0.011  0.00  0.00    +0.000 A 
ATOM      8  C   UNL     1       2.234   4.237   0.004  0.00  0.00    +0.000 A 
ATOM      9  C   UNL     1       1.056   3.492   0.011  0.00  0.00    +0.000 A 
ATOM     10  C   UNL     1      -0.178   4.141   0.020  0.00  0.00    +0.000 A 
ATOM     11  C   UNL     1      -0.231   5.524   0.032  0.00  0.00    +0.000 A 
ATOM     12  C   UNL     1       0.945   6.266   0.025  0.00  0.00    +0.000 A 
BRANCH  11  13
ATOM     13  O   UNL     1      -1.435   6.157   0.046  0.00  0.00    +0.000 OA
ATOM     14  C   UNL     1      -2.602   5.333   0.052  0.00  0.00    +0.000 C 
ENDBRANCH  11  13
BRANCH  12  15
ATOM     15  O   UNL     1       0.891   7.625   0.032  0.00  0.00    +0.000 OA
ATOM     16  C   UNL     1       0.854   8.279  -1.238  0.00  0.00    +0.000 C 
ENDBRANCH  12  15
BRANCH   7  18
ATOM     17  C   UNL     1       4.555   5.619  -0.011  0.00  0.00    +0.000 C 
ATOM     18  O   UNL     1       3.326   6.347   0.004  0.00  0.00    +0.000 OA
ENDBRANCH   7  18
ENDBRANCH   1   9
BRANCH   4  19
ATOM     19  C   UNL     1       1.282  -2.170  -0.022  0.00  0.00    +0.000 C 
BRANCH  19  20
ATOM     20  N   UNL     1       2.368  -2.647   0.852  0.00  0.00    +0.000 N 
ATOM     21  H   UNL     1       2.198  -2.316   1.812  0.00  0.00    +0.000 HD
ATOM     22  H   UNL     1       3.264  -2.265   0.515  0.00  0.00    +0.000 HD
ATOM     23  H   UNL     1       2.402  -3.676   0.840  0.00  0.00    +0.000 HD
ENDBRANCH  19  20
BRANCH  19  24
ATOM     24  C   UNL     1       1.539  -2.662  -1.448  0.00  0.00    +0.000 C 
BRANCH  24  25
ATOM     25  C   UNL     1       1.477  -4.167  -1.480  0.00  0.00    +0.000 C 
ATOM     26  O   UNL     1       1.250  -4.783  -0.465  0.00  0.00    +0.000 OA
ATOM     27  O   UNL     1       1.674  -4.823  -2.634  0.00  0.00    +0.000 OA
ENDBRANCH  24  25
ENDBRANCH  19  24
ENDBRANCH   4  19
TORSDOF 8
ENDMDL
MODEL     1109
REMARK  Name = ZINC03996041
REMARK  7 active torsions:
REMARK  status: ('A' for Active; 'I' for Inactive)
REMARK    1  A    between atoms: C_4  and  C_20
REMARK    2  A    between atoms: C_5  and  C_7
REMARK    3  A    between atoms: C_7  and  N_8
REMARK    4  A    between atoms: N_13  and  C_16
REMARK    5  A    between atoms: C_16  and  CA_17
REMARK    6  A    between atoms: CA_17  and  C_18
REMARK    7  A    between atoms: CA_17  and  N_23
REMARK                            x       y       z     vdW  Elec       q    Type
REMARK                         _______ _______ _______ _____ _____    ______ ____
ROOT
ATOM      1  N   UNL     1       1.224   2.044  -0.010  0.00  0.00    +0.000 N 
ATOM      2  C   UNL     1       0.013   1.451   0.012  0.00  0.00    +0.000 A 
ATOM      3  O   UNL     1      -0.076   0.237   0.027  0.00  0.00    +0.000 OA
ATOM      4  C   UNL     1      -1.153   2.254   0.013  0.00  0.00    +0.000 A 
ATOM      5  C   UNL     1      -1.026   3.598   0.001  0.00  0.00    +0.000 A 
ATOM      6  N   UNL     1       0.221   4.160  -0.020  0.00  0.00    +0.000 N 
ATOM      7  C   UNL     1       1.322   3.386  -0.026  0.00  0.00    +0.000 A 
ATOM      8  O   UNL     1       2.421   3.907  -0.045  0.00  0.00    +0.000 OA
ENDROOT
BRANCH   6   9
ATOM      9  C   UNL     1       0.359   5.619  -0.037  0.00  0.00    +0.000 C 
BRANCH   9  10
ATOM     10  CA  UNL     1       0.389   6.111  -1.486  0.00  0.00    +0.000 C 
BRANCH  10  11
ATOM     11  N   UNL     1       1.452   5.424  -2.241  0.00  0.00    +0.000 N 
ATOM     12  H1  UNL     1       1.274   4.410  -2.226  0.00  0.00    +0.000 HD
ATOM     13  H2  UNL     1       2.360   5.615  -1.794  0.00  0.00    +0.000 HD
ATOM     14  H3  UNL     1       1.466   5.761  -3.214  0.00  0.00    +0.000 HD
ENDBRANCH  10  11
BRANCH  10  15
ATOM     15  C   UNL     1       0.654   7.594  -1.507  0.00  0.00    +0.000 C 
ATOM     16  O   UNL     1       1.766   8.006  -1.737  0.00  0.00    +0.000 OA
ATOM     17  OXT UNL     1      -0.345   8.458  -1.269  0.00  0.00    +0.000 OA
ENDBRANCH  10  15
ENDBRANCH   9  10
ENDBRANCH   6   9
BRANCH   1  18
ATOM     18  C   UNL     1       2.438   1.224  -0.016  0.00  0.00    +0.000 C 
BRANCH  18  23
ATOM     19  C   UNL     1       2.338   0.986  -3.783  0.00  0.00    +0.000 A 
ATOM     20  C   UNL     1       3.451   0.207  -4.050  0.00  0.00    +0.000 A 
ATOM     21  C   UNL     1       4.242  -0.247  -3.016  0.00  0.00    +0.000 A 
ATOM     22  C   UNL     1       3.921   0.084  -1.698  0.00  0.00    +0.000 A 
ATOM     23  C   UNL     1       2.795   0.866  -1.436  0.00  0.00    +0.000 A 
ATOM     24  C   UNL     1       2.012   1.314  -2.480  0.00  0.00    +0.000 A 
BRANCH  22  25
ATOM     25  C   UNL     1       4.768  -0.395  -0.586  0.00  0.00    +0.000 C 
ATOM     26  O   UNL     1       4.429  -0.197   0.564  0.00  0.00    +0.000 OA
ATOM     27  O   UNL     1       5.915  -1.050  -0.846  0.00  0.00    +0.000 OA
ENDBRANCH  22  25
ENDBRANCH  18  23
ENDBRANCH   1  18
TORSDOF 7
ENDMDL
MODEL     1110
REMARK  Name = ZINC00055958
REMARK  7 active torsions:
REMARK  status: ('A' for Active; 'I' for Inactive)
REMARK    1  A    between atoms: C_1  and  O_2
REMARK    2  A    between atoms: O_2  and  C_3
REMARK    3  A    between atoms: C_6  and  C_9
REMARK    4  A    between atoms: N_10  and  N_11
REMARK    5  A    between atoms: C_12  and  C_14
REMARK    6  A    between atoms: C_14  and  C_15
REMARK    7  A    between atoms: C_15  and  N_16
REMARK                            x       y       z     vdW  Elec       q    Type
REMARK                         _______ _______ _______ _____ _____    ______ ____
ROOT
ATOM      1  N   UNL     1       4.895   0.851  -0.040  0.00  0.00    +0.000 N 
ATOM      2  C   UNL     1       3.719   1.508  -0.025  0.00  0.00    +0.000 C 
ATOM      3  O   UNL     1       3.702   2.721  -0.019  0.00  0.00    +0.000 OA
ATOM      4  H   UNL     1       4.909  -0.179  -0.046  0.00  0.00    +0.000 HD
ENDROOT
BRANCH   1   6
ATOM      5  C   UNL     1       7.231   0.934  -0.062  0.00  0.00    +0.000 C 
ATOM      6  N   UNL     1       6.098   1.567  -0.048  0.00  0.00    +0.000 NA
BRANCH   5  10
ATOM      7  C   UNL     1      10.878   3.106  -0.085  0.00  0.00    +0.000 A 
ATOM      8  C   UNL     1      10.899   1.718  -0.093  0.00  0.00    +0.000 A 
ATOM      9  C   UNL     1       9.718   1.008  -0.085  0.00  0.00    +0.000 A 
ATOM     10  C   UNL     1       8.498   1.688  -0.070  0.00  0.00    +0.000 A 
ATOM     11  C   UNL     1       8.481   3.086  -0.068  0.00  0.00    +0.000 A 
ATOM     12  C   UNL     1       9.667   3.787  -0.070  0.00  0.00    +0.000 A 
BRANCH   7  14
ATOM     13  C   UNL     1      11.951   5.227  -0.084  0.00  0.00    +0.000 C 
ATOM     14  O   UNL     1      12.045   3.802  -0.092  0.00  0.00    +0.000 OA
ENDBRANCH   7  14
ENDBRANCH   5  10
ENDBRANCH   1   6
BRANCH   2  15
ATOM     15  C   UNL     1       2.424   0.737  -0.017  0.00  0.00    +0.000 C 
BRANCH  15  16
ATOM     16  C   UNL     1       1.248   1.716  -0.001  0.00  0.00    +0.000 C 
BRANCH  16  17
ATOM     17  N   UNL     1      -0.011   0.966   0.007  0.00  0.00    +0.000 N 
ATOM     18  C   UNL     1      -1.229   1.647   0.017  0.00  0.00    +0.000 A 
ATOM     19  C   UNL     1      -2.500   0.905   0.019  0.00  0.00    +0.000 A 
ATOM     20  O   UNL     1      -2.505  -0.311   0.012  0.00  0.00    +0.000 OA
ATOM     21  N   UNL     1      -3.661   1.593   0.029  0.00  0.00    +0.000 N 
ATOM     22  C   UNL     1      -3.647   2.939   0.036  0.00  0.00    +0.000 A 
ATOM     23  O   UNL     1      -4.700   3.548   0.044  0.00  0.00    +0.000 OA
ATOM     24  N   UNL     1      -2.489   3.622   0.034  0.00  0.00    +0.000 N 
ATOM     25  N   UNL     1      -1.258   2.954   0.030  0.00  0.00    +0.000 NA
ATOM     26  H   UNL     1       0.003  -0.064   0.006  0.00  0.00    +0.000 HD
ATOM     27  H   UNL     1      -4.559   1.088   0.030  0.00  0.00    +0.000 HD
ATOM     28  H   UNL     1      -2.507   4.652   0.036  0.00  0.00    +0.000 HD
ENDBRANCH  16  17
ENDBRANCH  15  16
ENDBRANCH   2  15
TORSDOF 6
ENDMDL
MODEL     1111
REMARK  Name = ZINC15449364
REMARK  8 active torsions:
REMARK  status: ('A' for Active; 'I' for Inactive)
REMARK    1  A    between atoms: C_1  and  N_2
REMARK    2  A    between atoms: N_4  and  C_5
REMARK    3  A    between atoms: N_7  and  C_8
REMARK    4  A    between atoms: C_8  and  C_9
REMARK    5  A    between atoms: C_9  and  S_10
REMARK    6  A    between atoms: S_10  and  C_11
REMARK    7  A    between atoms: C_11  and  C_12
REMARK    8  A    between atoms: C_14  and  N_17
REMARK                            x       y       z     vdW  Elec       q    Type
REMARK                         _______ _______ _______ _____ _____    ______ ____
ROOT
ATOM      1  C   UNL     1       4.756  -4.152  -0.346  0.00  0.00    +0.000 A 
ATOM      2  N   UNL     1       4.403  -4.994  -1.289  0.00  0.00    +0.000 NA
ATOM      3  C   UNL     1       4.274  -6.289  -1.045  0.00  0.00    +0.000 A 
ATOM      4  C   UNL     1       4.510  -6.728   0.230  0.00  0.00    +0.000 A 
ATOM      5  S   UNL     1       4.928  -5.189   1.036  0.00  0.00    +0.000 S 
ENDROOT
BRANCH   3   6
ATOM      6  N   UNL     1       3.909  -7.165  -2.041  0.00  0.00    +0.000 N 
ATOM      7  C   UNL     1       3.550  -6.709  -3.216  0.00  0.00    +0.000 C 
ATOM      8  N   UNL     1       3.401  -5.356  -3.412  0.00  0.00    +0.000 N 
ATOM      9  N   UNL     1       3.324  -7.583  -4.253  0.00  0.00    +0.000 N 
ATOM     10  H   UNL     1       3.917  -8.179  -1.862  0.00  0.00    +0.000 HD
ATOM     11  H   UNL     1       3.570  -4.701  -2.636  0.00  0.00    +0.000 HD
ATOM     12  H   UNL     1       3.119  -4.998  -4.336  0.00  0.00    +0.000 HD
ATOM     13  H   UNL     1       3.436  -8.597  -4.105  0.00  0.00    +0.000 HD
ATOM     14  H   UNL     1       3.042  -7.225  -5.176  0.00  0.00    +0.000 HD
ENDBRANCH   3   6
BRANCH   1  15
ATOM     15  C   UNL     1       4.956  -2.662  -0.439  0.00  0.00    +0.000 C 
BRANCH  15  16
ATOM     16  S   UNL     1       3.389  -1.819  -0.087  0.00  0.00    +0.000 S 
BRANCH  16  17
ATOM     17  C   UNL     1       3.794  -0.057  -0.237  0.00  0.00    +0.000 C 
BRANCH  17  18
ATOM     18  C   UNL     1       2.543   0.779   0.038  0.00  0.00    +0.000 C 
BRANCH  18  23
ATOM     19  C   UNL     1      -0.409   3.773   0.641  0.00  0.00    +0.000 C 
ATOM     20  N   UNL     1       0.629   2.762   0.428  0.00  0.00    +0.000 N 
ATOM     21  C   UNL     1       1.903   3.145   0.116  0.00  0.00    +0.000 C 
ATOM     22  N   UNL     1       2.198   4.429   0.007  0.00  0.00    +0.000 NA
ATOM     23  N   UNL     1       2.871   2.202  -0.083  0.00  0.00    +0.000 N 
ATOM     24  H   UNL     1       0.399   1.762   0.513  0.00  0.00    +0.000 HD
ATOM     25  H   UNL     1       3.831   2.491  -0.318  0.00  0.00    +0.000 HD
BRANCH  22  26
ATOM     26  C   UNL     1       3.461   4.809  -0.303  0.00  0.00    +0.000 C 
ATOM     27  N   UNL     1       4.520   5.128  -0.562  0.00  0.00    +0.000 NA
ENDBRANCH  22  26
ENDBRANCH  18  23
ENDBRANCH  17  18
ENDBRANCH  16  17
ENDBRANCH  15  16
ENDBRANCH   1  15
TORSDOF 7
ENDMDL
MODEL     1112
REMARK  Name = ZINC23135961
REMARK  8 active torsions:
REMARK  status: ('A' for Active; 'I' for Inactive)
REMARK    1  A    between atoms: C_1  and  O_2
REMARK    2  A    between atoms: O_2  and  C_3
REMARK    3  A    between atoms: C_6  and  N_9
REMARK    4  A    between atoms: N_9  and  C_10
REMARK    5  A    between atoms: N_19  and  C_20
REMARK    6  A    between atoms: C_20  and  C_21
REMARK    7  A    between atoms: C_21  and  C_22
REMARK    8  A    between atoms: C_22  and  O_23
REMARK                            x       y       z     vdW  Elec       q    Type
REMARK                         _______ _______ _______ _____ _____    ______ ____
ROOT
ATOM      1  C   UNL     1      -1.179  -0.712   0.114  0.00  0.00    +0.000 A 
ATOM      2  C   UNL     1      -1.171  -2.118   0.207  0.00  0.00    +0.000 A 
ATOM      3  C   UNL     1      -0.161  -3.104   0.218  0.00  0.00    +0.000 A 
ATOM      4  N   UNL     1      -0.727  -4.273   0.326  0.00  0.00    +0.000 NA
ATOM      5  N   UNL     1      -2.117  -4.119   0.404  0.00  0.00    +0.000 NA
ATOM      6  C   UNL     1      -2.404  -2.788   0.325  0.00  0.00    +0.000 A 
ATOM      7  N   UNL     1      -3.528  -2.073   0.332  0.00  0.00    +0.000 NA
ATOM      8  C   UNL     1      -3.488  -0.755   0.237  0.00  0.00    +0.000 A 
ATOM      9  N   UNL     1      -2.348  -0.083   0.130  0.00  0.00    +0.000 N 
ATOM     10  N   UNL     1      -4.679  -0.051   0.249  0.00  0.00    +0.000 N 
ATOM     11  H   UNL     1      -2.372   0.945   0.059  0.00  0.00    +0.000 HD
ATOM     12  H   UNL     1      -4.670   0.977   0.176  0.00  0.00    +0.000 HD
ENDROOT
BRANCH   1  13
ATOM     13  N   UNL     1       0.002  -0.004   0.002  0.00  0.00    +0.000 N 
ATOM     14  H   UNL     1       0.905  -0.494   0.076  0.00  0.00    +0.000 HD
BRANCH  13  18
ATOM     15  C   UNL     1      -0.086   4.115  -0.634  0.00  0.00    +0.000 A 
ATOM     16  C   UNL     1       0.917   3.555   0.143  0.00  0.00    +0.000 A 
ATOM     17  C   UNL     1       0.947   2.191   0.354  0.00  0.00    +0.000 A 
ATOM     18  C   UNL     1      -0.028   1.379  -0.211  0.00  0.00    +0.000 A 
ATOM     19  C   UNL     1      -1.029   1.940  -0.993  0.00  0.00    +0.000 A 
ATOM     20  C   UNL     1      -1.061   3.305  -1.199  0.00  0.00    +0.000 A 
BRANCH  15  22
ATOM     21  C   UNL     1      -1.177   5.967  -1.652  0.00  0.00    +0.000 C 
ATOM     22  O   UNL     1      -0.115   5.459  -0.842  0.00  0.00    +0.000 OA
ENDBRANCH  15  22
ENDBRANCH  13  18
ENDBRANCH   1  13
BRANCH  10  23
ATOM     23  C   UNL     1      -5.952  -0.766   0.365  0.00  0.00    +0.000 C 
BRANCH  23  24
ATOM     24  C   UNL     1      -7.105   0.240   0.354  0.00  0.00    +0.000 C 
BRANCH  24  25
ATOM     25  C   UNL     1      -8.435  -0.506   0.476  0.00  0.00    +0.000 C 
BRANCH  25  26
ATOM     26  O   UNL     1      -9.512   0.433   0.465  0.00  0.00    +0.000 OA
ATOM     27  H   UNL     1      -9.497   0.944  -0.383  0.00  0.00    +0.000 HD
ENDBRANCH  25  26
ENDBRANCH  24  25
ENDBRANCH  23  24
ENDBRANCH  10  23
TORSDOF 7
ENDMDL
MODEL     1113
REMARK  Name = ZINC06088021
REMARK  8 active torsions:
REMARK  status: ('A' for Active; 'I' for Inactive)
REMARK    1  A    between atoms: C_6  and  C_7
REMARK    2  A    between atoms: C_7  and  C_9
REMARK    3  A    between atoms: C_9  and  C_10
REMARK    4  A    between atoms: C_10  and  N_21
REMARK    5  A    between atoms: CA_11  and  CB_12
REMARK    6  A    between atoms: CA_11  and  C_18
REMARK    7  A    between atoms: CA_11  and  N_21
REMARK    8  A    between atoms: CB_12  and  CG_13
REMARK                            x       y       z     vdW  Elec       q    Type
REMARK                         _______ _______ _______ _____ _____    ______ ____
ROOT
ATOM      1  N   UNL     1       2.913   2.459  -2.208  0.00  0.00    +0.000 N 
ATOM      2  H1  UNL     1       3.796   2.970  -2.059  0.00  0.00    +0.000 HD
ATOM      3  H2  UNL     1       2.130   3.034  -1.868  0.00  0.00    +0.000 HD
ENDROOT
BRANCH   1   4
ATOM      4  C   ACE A   0       2.739   2.195  -3.649  0.00  0.00    +0.000 C 
BRANCH   4   5
ATOM      5  C   UNL     1       2.705   3.526  -4.402  0.00  0.00    +0.000 C 
BRANCH   5   6
ATOM      6  C   UNL     1       2.527   3.264  -5.876  0.00  0.00    +0.000 C 
ATOM      7  O   UNL     1       2.437   2.126  -6.283  0.00  0.00    +0.000 OA
BRANCH   6  13
ATOM      8  C   UNL     1       2.562   5.705  -6.353  0.00  0.00    +0.000 A 
ATOM      9  C   UNL     1       2.507   6.755  -7.244  0.00  0.00    +0.000 A 
ATOM     10  C   UNL     1       2.343   6.511  -8.598  0.00  0.00    +0.000 A 
ATOM     11  C   UNL     1       2.240   5.211  -9.067  0.00  0.00    +0.000 A 
ATOM     12  C   UNL     1       2.299   4.152  -8.188  0.00  0.00    +0.000 A 
ATOM     13  C   UNL     1       2.464   4.390  -6.820  0.00  0.00    +0.000 A 
ATOM     14 CL   UNL     1       2.268   7.840  -9.713  0.00  0.00    +0.000 Cl
ENDBRANCH   6  13
ENDBRANCH   5   6
ENDBRANCH   4   5
ENDBRANCH   1   4
BRANCH   1  15
ATOM     15  CA  UNL     1       2.950   1.191  -1.455  0.00  0.00    +0.000 C 
BRANCH  15  16
ATOM     16  C   UNL     1       4.354   0.643  -1.461  0.00  0.00    +0.000 C 
ATOM     17  O   UNL     1       5.233   1.239  -2.037  0.00  0.00    +0.000 OA
ATOM     18  OXT UNL     1       4.627  -0.508  -0.827  0.00  0.00    +0.000 OA
ENDBRANCH  15  16
BRANCH  15  19
ATOM     19  CB  UNL     1       2.510   1.450  -0.013  0.00  0.00    +0.000 C 
BRANCH  19  20
ATOM     20  CG  UNL     1       1.066   1.882   0.002  0.00  0.00    +0.000 A 
ATOM     21  CD2 UNL     1      -0.013   1.076   0.008  0.00  0.00    +0.000 A 
ATOM     22  NE2 UNL     1      -1.108   1.849   0.017  0.00  0.00    +0.000 NA
ATOM     23  CE1 UNL     1      -0.750   3.104   0.025  0.00  0.00    +0.000 A 
ATOM     24  ND1 UNL     1       0.599   3.169   0.013  0.00  0.00    +0.000 N 
ATOM     25  HD1 UNL     1       1.170   4.026   0.011  0.00  0.00    +0.000 HD
ENDBRANCH  19  20
ENDBRANCH  15  19
ENDBRANCH   1  15
TORSDOF 8
ENDMDL
MODEL     1114
REMARK  Name = ZINC04998060
REMARK  10 active torsions:
REMARK  status: ('A' for Active; 'I' for Inactive)
REMARK    1  A    between atoms: C_1  and  O_2
REMARK    2  A    between atoms: O_2  and  C_3
REMARK    3  A    between atoms: C_6  and  C_11
REMARK    4  A    between atoms: C_7  and  O_9
REMARK    5  A    between atoms: O_9  and  C_10
REMARK    6  A    between atoms: C_11  and  N_23
REMARK    7  A    between atoms: C_12  and  C_13
REMARK    8  A    between atoms: C_12  and  N_23
REMARK    9  A    between atoms: C_13  and  N_14
REMARK   10  A    between atoms: C_15  and  C_17
REMARK                            x       y       z     vdW  Elec       q    Type
REMARK                         _______ _______ _______ _____ _____    ______ ____
ROOT
ATOM      1  C   UNL     1       1.451  -0.494  -0.015  0.00  0.00    +0.000 C 
ENDROOT
BRANCH   1   2
ATOM      2  N   UNL     1       1.462  -1.969  -0.022  0.00  0.00    +0.000 N 
ATOM      3  H   UNL     1       0.967  -2.309  -0.859  0.00  0.00    +0.000 HD
ATOM      4  H   UNL     1       0.982  -2.318   0.819  0.00  0.00    +0.000 HD
BRANCH   2   5
ATOM      5  C   UNL     1       2.850  -2.471  -0.038  0.00  0.00    +0.000 C 
BRANCH   5   9
ATOM      6  C   UNL     1       2.793  -6.747  -0.060  0.00  0.00    +0.000 A 
ATOM      7  C   UNL     1       3.022  -6.059   1.123  0.00  0.00    +0.000 A 
ATOM      8  C   UNL     1       3.040  -4.677   1.127  0.00  0.00    +0.000 A 
ATOM      9  C   UNL     1       2.830  -3.978  -0.046  0.00  0.00    +0.000 A 
ATOM     10  C   UNL     1       2.595  -4.662  -1.230  0.00  0.00    +0.000 A 
ATOM     11  C   UNL     1       2.582  -6.048  -1.238  0.00  0.00    +0.000 A 
BRANCH   6  13
ATOM     12  C   UNL     1       3.000  -8.761   1.187  0.00  0.00    +0.000 C 
ATOM     13  O   UNL     1       2.775  -8.106  -0.063  0.00  0.00    +0.000 OA
ENDBRANCH   6  13
BRANCH  10  14
ATOM     14  O   UNL     1       2.383  -3.973  -2.383  0.00  0.00    +0.000 OA
ATOM     15  C   UNL     1       2.148  -4.742  -3.564  0.00  0.00    +0.000 C 
ENDBRANCH  10  14
ENDBRANCH   5   9
ENDBRANCH   2   5
ENDBRANCH   1   2
BRANCH   1  16
ATOM     16  C   UNL     1       0.002  -0.004   0.002  0.00  0.00    +0.000 C 
BRANCH  16  17
ATOM     17  N   UNL     1      -0.018   1.461   0.010  0.00  0.00    +0.000 N 
ATOM     18  C   UNL     1      -1.194   2.119   0.019  0.00  0.00    +0.000 C 
ATOM     19  O   UNL     1      -2.238   1.497   0.021  0.00  0.00    +0.000 OA
ATOM     20  H   UNL     1       0.867   1.988   0.009  0.00  0.00    +0.000 HD
BRANCH  18  21
ATOM     21  C   UNL     1      -1.214   3.600   0.027  0.00  0.00    +0.000 A 
ATOM     22  C   UNL     1      -2.381   4.511   0.038  0.00  0.00    +0.000 A 
ATOM     23  N   UNL     1      -1.818   5.697   0.042  0.00  0.00    +0.000 NA
ATOM     24  O   UNL     1      -0.616   5.571   0.035  0.00  0.00    +0.000 OA
ATOM     25  N   UNL     1      -0.199   4.437   0.033  0.00  0.00    +0.000 NA
ATOM     26  N   UNL     1      -3.732   4.191   0.043  0.00  0.00    +0.000 N 
ATOM     27  H   UNL     1      -3.915   3.177   0.038  0.00  0.00    +0.000 HD
ATOM     28  H   UNL     1      -4.498   4.880   0.050  0.00  0.00    +0.000 HD
ENDBRANCH  18  21
ENDBRANCH  16  17
ENDBRANCH   1  16
TORSDOF 8
ENDMDL
MODEL     1115
REMARK  Name = ZINC31946779
REMARK  11 active torsions:
REMARK  status: ('A' for Active; 'I' for Inactive)
REMARK    1  A    between atoms: C_1  and  C_2
REMARK    2  A    between atoms: C_2  and  C_3
REMARK    3  A    between atoms: C_3  and  C_4
REMARK    4  A    between atoms: C_5  and  C_20
REMARK    5  A    between atoms: C_9  and  S_11
REMARK    6  A    between atoms: S_11  and  C_12
REMARK    7  A    between atoms: C_12  and  C_13
REMARK    8  A    between atoms: C_13  and  C_14
REMARK    9  A    between atoms: N_16  and  C_17
REMARK   10  A    between atoms: C_17  and  C_18
REMARK   11  A    between atoms: C_18  and  N_19
REMARK                            x       y       z     vdW  Elec       q    Type
REMARK                         _______ _______ _______ _____ _____    ______ ____
ROOT
ATOM      1  S   UNL     1      -1.567   2.194   0.021  0.00  0.00    +0.000 S 
ENDROOT
BRANCH   1   7
ATOM      2  C   UNL     1       2.290   1.486  -0.012  0.00  0.00    +0.000 A 
ATOM      3  C   UNL     1       2.382   0.094  -0.020  0.00  0.00    +0.000 A 
ATOM      4  C   UNL     1       1.180  -0.664  -0.012  0.00  0.00    +0.000 A 
ATOM      5  O   UNL     1       1.212  -1.882  -0.018  0.00  0.00    +0.000 OA
ATOM      6  N   UNL     1       0.002  -0.004   0.002  0.00  0.00    +0.000 NA
ATOM      7  C   UNL     1      -0.016   1.357   0.009  0.00  0.00    +0.000 A 
ATOM      8  N   UNL     1       1.099   2.066   0.003  0.00  0.00    +0.000 NA
BRANCH   3   9
ATOM      9  C   UNL     1       3.658  -0.556  -0.034  0.00  0.00    +0.000 C 
ATOM     10  N   UNL     1       4.670  -1.071  -0.046  0.00  0.00    +0.000 NA
ENDBRANCH   3   9
BRANCH   2  11
ATOM     11  C   UNL     1       3.540   2.327  -0.019  0.00  0.00    +0.000 C 
BRANCH  11  13
ATOM     12  C   UNL     1       5.150   3.577  -1.464  0.00  0.00    +0.000 C 
ATOM     13  C   UNL     1       3.880   2.723  -1.457  0.00  0.00    +0.000 C 
ENDBRANCH  11  13
ENDBRANCH   2  11
ENDBRANCH   1   7
BRANCH   1  14
ATOM     14  C   UNL     1      -0.996   3.912   0.028  0.00  0.00    +0.000 C 
BRANCH  14  15
ATOM     15  C   UNL     1      -2.204   4.851   0.039  0.00  0.00    +0.000 C 
BRANCH  15  16
ATOM     16  C   UNL     1      -1.728   6.281   0.044  0.00  0.00    +0.000 C 
ATOM     17  O   UNL     1      -0.541   6.525   0.040  0.00  0.00    +0.000 OA
ATOM     18  N   UNL     1      -2.624   7.288   0.054  0.00  0.00    +0.000 N 
ATOM     19  H   UNL     1      -3.632   7.081   0.058  0.00  0.00    +0.000 HD
BRANCH  18  20
ATOM     20  C   UNL     1      -2.162   8.679   0.059  0.00  0.00    +0.000 C 
BRANCH  20  21
ATOM     21  C   UNL     1      -3.370   9.617   0.070  0.00  0.00    +0.000 C 
BRANCH  21  22
ATOM     22  N   UNL     1      -2.906  11.011   0.075  0.00  0.00    +0.000 N 
ATOM     23  H   UNL     1      -2.341  11.190  -0.767  0.00  0.00    +0.000 HD
ATOM     24  H   UNL     1      -2.333  11.181   0.915  0.00  0.00    +0.000 HD
ATOM     25  H   UNL     1      -3.719  11.644   0.083  0.00  0.00    +0.000 HD
ENDBRANCH  21  22
ENDBRANCH  20  21
ENDBRANCH  18  20
ENDBRANCH  15  16
ENDBRANCH  14  15
ENDBRANCH   1  14
TORSDOF 10
ENDMDL
MODEL     1116
REMARK  Name = ZINC05667354
REMARK  8 active torsions:
REMARK  status: ('A' for Active; 'I' for Inactive)
REMARK    1  A    between atoms: C_2  and  C_3
REMARK    2  A    between atoms: C_2  and  N_23
REMARK    3  A    between atoms: N_9  and  C_12
REMARK    4  A    between atoms: C_12  and  C_13
REMARK    5  A    between atoms: C_19  and  C_20
REMARK    6  A    between atoms: C_19  and  N_23
REMARK    7  A    between atoms: C_20  and  C_21
REMARK    8  A    between atoms: C_21  and  O_22
REMARK                            x       y       z     vdW  Elec       q    Type
REMARK                         _______ _______ _______ _____ _____    ______ ____
ROOT
ATOM      1  C   UNL     1       5.264   1.838  -3.470  0.00  0.00    +0.000 A 
ATOM      2  C   UNL     1       4.735   3.133  -4.057  0.00  0.00    +0.000 A 
ATOM      3  O   UNL     1       4.998   3.462  -5.194  0.00  0.00    +0.000 OA
ATOM      4  N   UNL     1       3.959   3.906  -3.267  0.00  0.00    +0.000 N 
ATOM      5  C   UNL     1       3.659   3.557  -2.011  0.00  0.00    +0.000 A 
ATOM      6  O   UNL     1       2.955   4.312  -1.370  0.00  0.00    +0.000 OA
ATOM      7  N   UNL     1       4.078   2.438  -1.408  0.00  0.00    +0.000 N 
ATOM      8  C   UNL     1       4.868   1.541  -2.036  0.00  0.00    +0.000 A 
ATOM      9  O   UNL     1       5.244   0.534  -1.476  0.00  0.00    +0.000 OA
ATOM     10  H   UNL     1       3.587   4.790  -3.643  0.00  0.00    +0.000 HD
ENDROOT
BRANCH   1  12
ATOM     11  C   UNL     1       5.665  -0.087  -4.931  0.00  0.00    +0.000 C 
ATOM     12  C   UNL     1       4.788   0.701  -4.337  0.00  0.00    +0.000 C 
BRANCH  12  13
ATOM     13  N   UNL     1       3.380   0.527  -4.478  0.00  0.00    +0.000 NA
ATOM     14  H   UNL     1       2.971   0.392  -3.542  0.00  0.00    +0.000 HD
ATOM     15  H   UNL     1       2.978   1.395  -4.861  0.00  0.00    +0.000 HD
BRANCH  13  16
ATOM     16  C   UNL     1       2.966  -0.623  -5.355  0.00  0.00    +0.000 C 
BRANCH  16  17
ATOM     17  C   UNL     1       1.436  -0.641  -5.378  0.00  0.00    +0.000 C 
BRANCH  17  18
ATOM     18  C   UNL     1       0.953  -1.796  -6.259  0.00  0.00    +0.000 C 
BRANCH  18  19
ATOM     19  O   UNL     1      -0.475  -1.813  -6.280  0.00  0.00    +0.000 OA
ATOM     20  H   UNL     1      -0.811  -0.957  -6.647  0.00  0.00    +0.000 HD
ENDBRANCH  18  19
ENDBRANCH  17  18
ENDBRANCH  16  17
ENDBRANCH  13  16
ENDBRANCH  12  13
ENDBRANCH   1  12
BRANCH   7  21
ATOM     21  C   UNL     1       3.672   2.182  -0.024  0.00  0.00    +0.000 C 
BRANCH  21  22
ATOM     22  C   UNL     1       2.377   1.411  -0.015  0.00  0.00    +0.000 A 
ATOM     23  C   UNL     1       1.171   2.086   0.002  0.00  0.00    +0.000 A 
ATOM     24  C   UNL     1      -0.017   1.378   0.010  0.00  0.00    +0.000 A 
ATOM     25  C   UNL     1       0.002  -0.004   0.002  0.00  0.00    +0.000 A 
ATOM     26  C   UNL     1       1.208  -0.679  -0.013  0.00  0.00    +0.000 A 
ATOM     27  C   UNL     1       2.396   0.029  -0.022  0.00  0.00    +0.000 A 
ENDBRANCH  21  22
ENDBRANCH   7  21
TORSDOF 8
ENDMDL
MODEL     1117
REMARK  Name = ZINC04535668
REMARK  11 active torsions:
REMARK  status: ('A' for Active; 'I' for Inactive)
REMARK    1  A    between atoms: C_1  and  C_2
REMARK    2  A    between atoms: C_2  and  C_3
REMARK    3  A    between atoms: C_6  and  C_9
REMARK    4  A    between atoms: C_10  and  C_21
REMARK    5  A    between atoms: N_14  and  C_15
REMARK    6  A    between atoms: C_15  and  C_16
REMARK    7  A    between atoms: C_16  and  N_24
REMARK    8  A    between atoms: C_17  and  C_18
REMARK    9  A    between atoms: C_17  and  N_24
REMARK   10  A    between atoms: C_18  and  O_19
REMARK   11  A    between atoms: C_21  and  C_23
REMARK                            x       y       z     vdW  Elec       q    Type
REMARK                         _______ _______ _______ _____ _____    ______ ____
ROOT
ATOM      1  C   UNL     1      -4.867   0.577   5.087  0.00  0.00    +0.000 C 
ATOM      2  C   UNL     1      -5.751   1.411   5.984  0.00  0.00    +0.000 C 
ATOM      3  C   UNL     1      -6.224   2.432   5.228  0.00  0.00    +0.000 C 
ATOM      4  C   UNL     1      -5.682   2.310   3.856  0.00  0.00    +0.000 C 
ATOM      5  O   UNL     1      -5.921   3.073   2.942  0.00  0.00    +0.000 OA
ATOM      6  N   UNL     1      -4.886   1.229   3.772  0.00  0.00    +0.000 N 
ATOM      7  O   UNL     1      -7.058   3.405   5.657  0.00  0.00    +0.000 OA
ENDROOT
BRANCH   1  11
ATOM      8  C   UNL     1      -0.883   0.493   6.626  0.00  0.00    +0.000 A 
ATOM      9  C   UNL     1      -1.712  -0.602   6.791  0.00  0.00    +0.000 A 
ATOM     10  C   UNL     1      -3.001  -0.574   6.293  0.00  0.00    +0.000 A 
ATOM     11  C   UNL     1      -3.462   0.547   5.630  0.00  0.00    +0.000 A 
ATOM     12  C   UNL     1      -2.632   1.639   5.459  0.00  0.00    +0.000 A 
ATOM     13  C   UNL     1      -1.344   1.614   5.962  0.00  0.00    +0.000 A 
BRANCH   8  15
ATOM     14  C   UNL     1       1.469  -0.093   6.102  0.00  0.00    +0.000 C 
ATOM     15  C   UNL     1       0.522   0.463   7.168  0.00  0.00    +0.000 C 
ENDBRANCH   8  15
ENDBRANCH   1  11
BRANCH   2  16
ATOM     16  C   UNL     1      -6.033   1.171   7.350  0.00  0.00    +0.000 C 
ATOM     17  O   UNL     1      -6.768   1.921   7.959  0.00  0.00    +0.000 OA
ATOM     18  C   UNL     1      -5.422  -0.017   8.048  0.00  0.00    +0.000 C 
ENDBRANCH   2  16
BRANCH   6  19
ATOM     19  C   UNL     1      -4.170   0.778   2.576  0.00  0.00    +0.000 C 
BRANCH  19  20
ATOM     20  C   UNL     1      -2.785   1.427   2.537  0.00  0.00    +0.000 C 
BRANCH  20  21
ATOM     21  N   UNL     1      -2.070   0.968   1.331  0.00  0.00    +0.000 N 
ATOM     22  H   UNL     1      -1.976  -0.057   1.359  0.00  0.00    +0.000 HD
ATOM     23  H   UNL     1      -2.606   1.235   0.493  0.00  0.00    +0.000 HD
BRANCH  21  24
ATOM     24  C   UNL     1      -0.729   1.579   1.267  0.00  0.00    +0.000 C 
BRANCH  24  25
ATOM     25  C   UNL     1      -0.013   1.086   0.008  0.00  0.00    +0.000 C 
BRANCH  25  26
ATOM     26  O   UNL     1      -0.704   1.559  -1.150  0.00  0.00    +0.000 OA
ATOM     27  H   UNL     1      -0.718   2.549  -1.145  0.00  0.00    +0.000 HD
ENDBRANCH  25  26
ENDBRANCH  24  25
ENDBRANCH  21  24
ENDBRANCH  20  21
ENDBRANCH  19  20
ENDBRANCH   6  19
TORSDOF 9
ENDMDL
MODEL     1118
REMARK  Name = ZINC06503101
REMARK  10 active torsions:
REMARK  status: ('A' for Active; 'I' for Inactive)
REMARK    1  A    between atoms: C_2  and  C_3
REMARK    2  A    between atoms: C_2  and  N_23
REMARK    3  A    between atoms: C_3  and  C_4
REMARK    4  A    between atoms: C_3  and  C_6
REMARK    5  A    between atoms: C_6  and  C_8
REMARK    6  A    between atoms: C_8  and  O_9
REMARK    7  A    between atoms: O_9  and  C_10
REMARK    8  A    between atoms: C_10  and  C_12
REMARK    9  A    between atoms: C_12  and  N_13
REMARK   10  A    between atoms: C_14  and  C_16
REMARK                            x       y       z     vdW  Elec       q    Type
REMARK                         _______ _______ _______ _____ _____    ______ ____
ROOT
ATOM      1  C   UNL     1       2.406   0.752  -0.017  0.00  0.00    +0.000 C 
ATOM      2  O   UNL     1       2.201  -0.439  -0.021  0.00  0.00    +0.000 OA
ENDROOT
BRANCH   1   3
ATOM      3  C   UNL     1       1.248   1.716  -0.001  0.00  0.00    +0.000 C 
BRANCH   3   4
ATOM      4  N   UNL     1      -0.011   0.966   0.007  0.00  0.00    +0.000 N 
ATOM      5  C   UNL     1      -1.187   1.624   0.017  0.00  0.00    +0.000 C 
ATOM      6  O   UNL     1      -1.204   2.839   0.023  0.00  0.00    +0.000 OA
ATOM      7  H   UNL     1       0.003  -0.064   0.006  0.00  0.00    +0.000 HD
BRANCH   5   8
ATOM      8  C   UNL     1      -2.456   0.868   0.018  0.00  0.00    +0.000 A 
ATOM      9  C   UNL     1      -2.441  -0.528   0.005  0.00  0.00    +0.000 A 
ATOM     10  C   UNL     1      -3.629  -1.228   0.013  0.00  0.00    +0.000 A 
ATOM     11  C   UNL     1      -4.837  -0.551   0.022  0.00  0.00    +0.000 A 
ATOM     12  C   UNL     1      -4.862   0.831   0.030  0.00  0.00    +0.000 A 
ATOM     13  C   UNL     1      -3.678   1.547   0.028  0.00  0.00    +0.000 A 
ATOM     14  F   UNL     1      -3.703   2.898   0.035  0.00  0.00    +0.000 F 
ENDBRANCH   5   8
ENDBRANCH   3   4
ENDBRANCH   1   3
BRANCH   1  15
ATOM     15  O   UNL     1       3.665   1.216  -0.026  0.00  0.00    +0.000 OA
BRANCH  15  16
ATOM     16  C   UNL     1       4.731   0.231  -0.042  0.00  0.00    +0.000 C 
BRANCH  16  17
ATOM     17  C   UNL     1       6.065   0.933  -0.051  0.00  0.00    +0.000 C 
ATOM     18  O   UNL     1       6.112   2.140  -0.045  0.00  0.00    +0.000 OA
BRANCH  17  19
ATOM     19  C   UNL     1       7.340   0.130  -0.067  0.00  0.00    +0.000 C 
BRANCH  19  20
ATOM     20  C   UNL     1       7.742  -0.124  -1.460  0.00  0.00    +0.000 C 
ATOM     21  N   UNL     1       8.052  -0.321  -2.535  0.00  0.00    +0.000 NA
ENDBRANCH  19  20
BRANCH  19  23
ATOM     22  C   UNL     1       9.015   0.386   1.702  0.00  0.00    +0.000 C 
ATOM     23  C   UNL     1       8.428   0.899   0.637  0.00  0.00    +0.000 C 
BRANCH  23  24
ATOM     24  N   UNL     1       8.622   2.272   0.327  0.00  0.00    +0.000 N 
ATOM     25  H   UNL     1       9.216   2.864   0.926  0.00  0.00    +0.000 HD
ATOM     26  H   UNL     1       8.166   2.678  -0.503  0.00  0.00    +0.000 HD
ENDBRANCH  23  24
ENDBRANCH  19  23
ENDBRANCH  17  19
ENDBRANCH  16  17
ENDBRANCH  15  16
ENDBRANCH   1  15
TORSDOF 10
ENDMDL
MODEL     1119
REMARK  Name = ZINC00389139
REMARK  10 active torsions:
REMARK  status: ('A' for Active; 'I' for Inactive)
REMARK    1  A    between atoms: C_1  and  O_2
REMARK    2  A    between atoms: O_2  and  C_3
REMARK    3  A    between atoms: C_8  and  O_9
REMARK    4  A    between atoms: O_9  and  C_10
REMARK    5  A    between atoms: N_16  and  C_17
REMARK    6  A    between atoms: N_16  and  C_20
REMARK    7  A    between atoms: C_17  and  C_18
REMARK    8  A    between atoms: C_18  and  O_19
REMARK    9  A    between atoms: C_20  and  C_21
REMARK   10  A    between atoms: C_21  and  O_22
REMARK                            x       y       z     vdW  Elec       q    Type
REMARK                         _______ _______ _______ _____ _____    ______ ____
ROOT
ATOM      1  C   UNL     1       0.056   6.774   4.582  0.00  0.00    +0.000 A 
ATOM      2  C   UNL     1       0.709   6.353   3.459  0.00  0.00    +0.000 A 
ATOM      3  C   UNL     1       0.361   5.130   2.873  0.00  0.00    +0.000 A 
ATOM      4  C   UNL     1      -0.663   4.338   3.447  0.00  0.00    +0.000 A 
ATOM      5  C   UNL     1      -1.319   4.789   4.599  0.00  0.00    +0.000 A 
ATOM      6  C   UNL     1      -0.958   5.996   5.156  0.00  0.00    +0.000 A 
ATOM      7  N   UNL     1      -0.982   3.171   2.863  0.00  0.00    +0.000 NA
ATOM      8  C   UNL     1      -0.344   2.769   1.782  0.00  0.00    +0.000 A 
ATOM      9  N   UNL     1       0.623   3.482   1.211  0.00  0.00    +0.000 NA
ATOM     10  C   UNL     1       1.007   4.649   1.708  0.00  0.00    +0.000 A 
ATOM     11  N   UNL     1       2.012   5.378   1.105  0.00  0.00    +0.000 N 
ATOM     12  N   UNL     1      -0.698   1.558   1.213  0.00  0.00    +0.000 N 
ATOM     13  H   UNL     1       2.292   6.282   1.510  0.00  0.00    +0.000 HD
ATOM     14  H   UNL     1       2.478   5.022   0.258  0.00  0.00    +0.000 HD
ENDROOT
BRANCH   1  16
ATOM     15  C   UNL     1       1.436   8.711   4.519  0.00  0.00    +0.000 C 
ATOM     16  O   UNL     1       0.395   7.963   5.151  0.00  0.00    +0.000 OA
ENDBRANCH   1  16
BRANCH   6  17
ATOM     17  O   UNL     1      -1.592   6.437   6.274  0.00  0.00    +0.000 OA
ATOM     18  C   UNL     1      -2.617   5.598   6.811  0.00  0.00    +0.000 C 
ENDBRANCH   6  17
BRANCH  12  19
ATOM     19  C   UNL     1      -0.013   1.086   0.008  0.00  0.00    +0.000 C 
BRANCH  19  20
ATOM     20  C   UNL     1      -0.753   1.593  -1.232  0.00  0.00    +0.000 C 
BRANCH  20  21
ATOM     21  O   UNL     1      -2.054   1.005  -1.282  0.00  0.00    +0.000 OA
ATOM     22  H   UNL     1      -2.562   1.256  -0.470  0.00  0.00    +0.000 HD
ENDBRANCH  20  21
ENDBRANCH  19  20
ENDBRANCH  12  19
BRANCH  12  23
ATOM     23  C   UNL     1      -1.760   0.749   1.817  0.00  0.00    +0.000 C 
BRANCH  23  24
ATOM     24  C   UNL     1      -1.150  -0.204   2.847  0.00  0.00    +0.000 C 
BRANCH  24  25
ATOM     25  O   UNL     1      -0.592   0.551   3.924  0.00  0.00    +0.000 OA
ATOM     26  H   UNL     1      -1.303   1.090   4.354  0.00  0.00    +0.000 HD
ENDBRANCH  24  25
ENDBRANCH  23  24
ENDBRANCH  12  23
TORSDOF 8
ENDMDL
MODEL     1120
REMARK  Name = ZINC05829897
REMARK  9 active torsions:
REMARK  status: ('A' for Active; 'I' for Inactive)
REMARK    1  A    between atoms: C_8  and  C_12
REMARK    2  A    between atoms: C_9  and  O_11
REMARK    3  A    between atoms: N_14  and  C_15
REMARK    4  A    between atoms: C_15  and  C_16
REMARK    5  A    between atoms: C_16  and  C_17
REMARK    6  A    between atoms: C_17  and  C_18
REMARK    7  A    between atoms: C_18  and  C_19
REMARK    8  A    between atoms: C_19  and  C_20
REMARK    9  A    between atoms: C_20  and  N_22
REMARK                            x       y       z     vdW  Elec       q    Type
REMARK                         _______ _______ _______ _____ _____    ______ ____
ROOT
ATOM      1  C   UNL     1      -0.079  -2.804   0.391  0.00  0.00    +0.000 C 
ATOM      2  C   UNL     1      -1.205  -2.151  -0.421  0.00  0.00    +0.000 C 
ATOM      3  C   UNL     1      -1.338  -0.699   0.029  0.00  0.00    +0.000 C 
ATOM      4  C   UNL     1       0.002  -0.004   0.002  0.00  0.00    +0.000 A 
ATOM      5  C   UNL     1       1.162  -0.677  -0.021  0.00  0.00    +0.000 A 
ATOM      6  C   UNL     1       2.393   0.040  -0.023  0.00  0.00    +0.000 A 
ATOM      7  O   UNL     1       3.460  -0.553  -0.033  0.00  0.00    +0.000 OA
ATOM      8  C   UNL     1       2.353   1.505  -0.012  0.00  0.00    +0.000 A 
ATOM      9  C   UNL     1       1.103   2.119   0.003  0.00  0.00    +0.000 A 
ATOM     10  N   UNL     1      -0.017   1.365   0.009  0.00  0.00    +0.000 N 
ATOM     11  C   UNL     1       1.244  -2.181  -0.047  0.00  0.00    +0.000 C 
ATOM     12  H   UNL     1      -0.929   1.842   0.021  0.00  0.00    +0.000 HD
ENDROOT
BRANCH   8  13
ATOM     13  C   UNL     1       3.589   2.297  -0.018  0.00  0.00    +0.000 C 
ATOM     14  O   UNL     1       4.091   2.634  -1.073  0.00  0.00    +0.000 OA
ATOM     15  N   UNL     1       4.167   2.653   1.147  0.00  0.00    +0.000 N 
ATOM     16  H   UNL     1       3.741   2.369   2.041  0.00  0.00    +0.000 HD
BRANCH  15  17
ATOM     17  C   UNL     1       5.399   3.444   1.142  0.00  0.00    +0.000 C 
BRANCH  17  18
ATOM     18  C   UNL     1       5.842   3.709   2.582  0.00  0.00    +0.000 C 
BRANCH  18  19
ATOM     19  C   UNL     1       7.129   4.535   2.577  0.00  0.00    +0.000 C 
BRANCH  19  20
ATOM     20  C   UNL     1       7.572   4.801   4.017  0.00  0.00    +0.000 C 
BRANCH  20  21
ATOM     21  C   UNL     1       8.859   5.627   4.011  0.00  0.00    +0.000 C 
BRANCH  21  22
ATOM     22  C   UNL     1       9.301   5.892   5.452  0.00  0.00    +0.000 C 
BRANCH  22  23
ATOM     23  N   UNL     1      10.530   6.706   5.435  0.00  0.00    +0.000 N 
ATOM     24  H   UNL     1      10.346   7.603   4.963  0.00  0.00    +0.000 HD
ATOM     25  H   UNL     1      11.275   6.200   4.936  0.00  0.00    +0.000 HD
ATOM     26  H   UNL     1      10.831   6.887   6.403  0.00  0.00    +0.000 HD
ENDBRANCH  22  23
ENDBRANCH  21  22
ENDBRANCH  20  21
ENDBRANCH  19  20
ENDBRANCH  18  19
ENDBRANCH  17  18
ENDBRANCH  15  17
ENDBRANCH   8  13
BRANCH   9  27
ATOM     27  O   UNL     1       1.011   3.464   0.010  0.00  0.00    +0.000 OA
ATOM     28  H   UNL     1       1.516   3.758  -0.789  0.00  0.00    +0.000 HD
ENDBRANCH   9  27
TORSDOF 9
ENDMDL
MODEL     1121
REMARK  Name = ZINC20527967
REMARK  9 active torsions:
REMARK  status: ('A' for Active; 'I' for Inactive)
REMARK    1  A    between atoms: C_1  and  C_2
REMARK    2  A    between atoms: C_2  and  O_3
REMARK    3  A    between atoms: O_3  and  C_4
REMARK    4  A    between atoms: C_7  and  C_10
REMARK    5  A    between atoms: N_11  and  N_12
REMARK    6  A    between atoms: C_16  and  S_19
REMARK    7  A    between atoms: N_17  and  N_18
REMARK    8  A    between atoms: S_19  and  C_20
REMARK    9  A    between atoms: C_20  and  C_21
REMARK                            x       y       z     vdW  Elec       q    Type
REMARK                         _______ _______ _______ _____ _____    ______ ____
ROOT
ATOM      1  N   UNL     1      -0.017   1.383   0.010  0.00  0.00    +0.000 N 
ATOM      2  C   UNL     1       0.002  -0.004   0.002  0.00  0.00    +0.000 A 
ATOM      3  N   UNL     1      -1.048  -0.789   0.013  0.00  0.00    +0.000 NA
ATOM      4  N   UNL     1      -0.597  -2.115  -0.004  0.00  0.00    +0.000 NA
ATOM      5  C   UNL     1       0.715  -2.097  -0.016  0.00  0.00    +0.000 A 
ATOM      6  N   UNL     1       1.119  -0.793  -0.013  0.00  0.00    +0.000 N 
ATOM      7  H   UNL     1       0.868   1.910   0.008  0.00  0.00    +0.000 HD
ENDROOT
BRANCH   6   8
ATOM      8  N   UNL     1       2.412  -0.353  -0.023  0.00  0.00    +0.000 N 
ATOM      9  H   UNL     1       2.537   0.670  -0.019  0.00  0.00    +0.000 HD
ATOM     10  H   UNL     1       3.222  -0.989  -0.034  0.00  0.00    +0.000 HD
ENDBRANCH   6   8
BRANCH   1  12
ATOM     11  C   UNL     1      -1.257   3.366   0.026  0.00  0.00    +0.000 C 
ATOM     12  N   UNL     1      -1.239   2.067   0.019  0.00  0.00    +0.000 NA
BRANCH  11  16
ATOM     13  C   UNL     1      -4.962   5.438   0.055  0.00  0.00    +0.000 A 
ATOM     14  C   UNL     1      -3.770   6.151   0.053  0.00  0.00    +0.000 A 
ATOM     15  C   UNL     1      -2.565   5.482   0.044  0.00  0.00    +0.000 A 
ATOM     16  C   UNL     1      -2.543   4.085   0.036  0.00  0.00    +0.000 A 
ATOM     17  C   UNL     1      -3.745   3.372   0.032  0.00  0.00    +0.000 A 
ATOM     18  C   UNL     1      -4.946   4.049   0.048  0.00  0.00    +0.000 A 
BRANCH  13  19
ATOM     19  O   UNL     1      -6.148   6.101   0.064  0.00  0.00    +0.000 OA
BRANCH  19  21
ATOM     20  C   UNL     1      -8.562   6.222   0.076  0.00  0.00    +0.000 C 
ATOM     21  C   UNL     1      -7.336   5.307   0.065  0.00  0.00    +0.000 C 
ENDBRANCH  19  21
ENDBRANCH  13  19
ENDBRANCH  11  16
ENDBRANCH   1  12
BRANCH   5  22
ATOM     22  S   UNL     1       1.770  -3.509  -0.033  0.00  0.00    +0.000 S 
BRANCH  22  23
ATOM     23  C   UNL     1       0.623  -4.914  -0.030  0.00  0.00    +0.000 C 
BRANCH  23  24
ATOM     24  C   UNL     1       1.406  -6.201  -0.044  0.00  0.00    +0.000 C 
ATOM     25  O   UNL     1       2.618  -6.174  -0.055  0.00  0.00    +0.000 OA
ATOM     26  N   UNL     1       0.759  -7.384  -0.044  0.00  0.00    +0.000 N 
ATOM     27  H   UNL     1      -0.271  -7.407  -0.035  0.00  0.00    +0.000 HD
ATOM     28  H   UNL     1       1.294  -8.264  -0.054  0.00  0.00    +0.000 HD
ENDBRANCH  23  24
ENDBRANCH  22  23
ENDBRANCH   5  22
TORSDOF 8
ENDMDL
MODEL     1122
REMARK  Name = ZINC20676572
REMARK  8 active torsions:
REMARK  status: ('A' for Active; 'I' for Inactive)
REMARK    1  A    between atoms: C_6  and  N_10
REMARK    2  A    between atoms: N_10  and  C_11
REMARK    3  A    between atoms: C_11  and  C_12
REMARK    4  A    between atoms: C_12  and  C_13
REMARK    5  A    between atoms: N_15  and  C_16
REMARK    6  A    between atoms: C_16  and  C_17
REMARK    7  A    between atoms: C_17  and  C_18
REMARK    8  A    between atoms: C_18  and  N_19
REMARK                            x       y       z     vdW  Elec       q    Type
REMARK                         _______ _______ _______ _____ _____    ______ ____
ROOT
ATOM      1  C   UNL     1      -0.753   1.593  -1.232  0.00  0.00    +0.000 C 
ENDROOT
BRANCH   1   2
ATOM      2  C   UNL     1      -0.047   1.107  -2.471  0.00  0.00    +0.000 C 
ATOM      3  O   UNL     1       0.949   0.422  -2.373  0.00  0.00    +0.000 OA
ATOM      4  N   UNL     1      -0.524   1.433  -3.689  0.00  0.00    +0.000 N 
ATOM      5  H   UNL     1      -1.370   2.014  -3.773  0.00  0.00    +0.000 HD
BRANCH   4   6
ATOM      6  C   UNL     1       0.162   0.960  -4.895  0.00  0.00    +0.000 C 
BRANCH   6   7
ATOM      7  C   UNL     1      -0.578   1.467  -6.134  0.00  0.00    +0.000 C 
BRANCH   7   8
ATOM      8  C   UNL     1       0.138   0.974  -7.393  0.00  0.00    +0.000 C 
BRANCH   8   9
ATOM      9  N   UNL     1      -0.573   1.460  -8.583  0.00  0.00    +0.000 NA
ATOM     10  C   UNL     1      -1.907   0.851  -8.686  0.00  0.00    +0.000 C 
ATOM     11  C   UNL     1      -2.633   1.429  -9.903  0.00  0.00    +0.000 C 
ATOM     12  O   UNL     1      -1.843   1.205 -11.075  0.00  0.00    +0.000 OA
ATOM     13  C   UNL     1      -0.538   1.785 -11.009  0.00  0.00    +0.000 C 
ATOM     14  C   UNL     1       0.210   1.210  -9.803  0.00  0.00    +0.000 C 
ENDBRANCH   8   9
ENDBRANCH   7   8
ENDBRANCH   6   7
ENDBRANCH   4   6
ENDBRANCH   1   2
BRANCH   1  15
ATOM     15  C   UNL     1      -0.013   1.086   0.008  0.00  0.00    +0.000 C 
BRANCH  15  16
ATOM     16  N   UNL     1      -0.698   1.558   1.213  0.00  0.00    +0.000 N 
ATOM     17  H   UNL     1      -1.545   2.139   1.130  0.00  0.00    +0.000 HD
BRANCH  16  23
ATOM     18  C   UNL     1      -2.111   2.532   5.172  0.00  0.00    +0.000 A 
ATOM     19  N   UNL     1      -1.124   1.855   5.824  0.00  0.00    +0.000 N 
ATOM     20  C   UNL     1      -0.310   1.295   4.872  0.00  0.00    +0.000 A 
ATOM     21  C   UNL     1      -0.851   1.673   3.631  0.00  0.00    +0.000 A 
ATOM     22  N   UNL     1      -1.951   2.421   3.885  0.00  0.00    +0.000 NA
ATOM     23  C   UNL     1      -0.209   1.224   2.464  0.00  0.00    +0.000 A 
ATOM     24  N   UNL     1       0.882   0.475   2.589  0.00  0.00    +0.000 NA
ATOM     25  C   UNL     1       1.356   0.150   3.778  0.00  0.00    +0.000 A 
ATOM     26  N   UNL     1       0.785   0.543   4.898  0.00  0.00    +0.000 NA
ATOM     27  H   UNL     1      -1.010   1.778   6.845  0.00  0.00    +0.000 HD
ENDBRANCH  16  23
ENDBRANCH  15  16
ENDBRANCH   1  15
TORSDOF 8
ENDMDL
MODEL     1123
REMARK  Name = ZINC29484942
REMARK  10 active torsions:
REMARK  status: ('A' for Active; 'I' for Inactive)
REMARK    1  A    between atoms: C_1  and  O_2
REMARK    2  A    between atoms: O_2  and  C_3
REMARK    3  A    between atoms: C_3  and  C_4
REMARK    4  A    between atoms: C_4  and  N_5
REMARK    5  A    between atoms: C_6  and  S_8
REMARK    6  A    between atoms: S_8  and  C_9
REMARK    7  A    between atoms: C_9  and  C_10
REMARK    8  A    between atoms: C_15  and  C_18
REMARK    9  A    between atoms: C_18  and  O_20
REMARK   10  A    between atoms: O_20  and  C_21
REMARK                            x       y       z     vdW  Elec       q    Type
REMARK                         _______ _______ _______ _____ _____    ______ ____
ROOT
ATOM      1  C   UNL     1      -3.030   3.690  -0.005  0.00  0.00    +0.000 C 
ENDROOT
BRANCH   1   2
ATOM      2  C   UNL     1      -3.304   5.171   0.052  0.00  0.00    +0.000 C 
ATOM      3  O   UNL     1      -2.393   5.950   0.236  0.00  0.00    +0.000 OA
ATOM      4  N   UNL     1      -4.562   5.630  -0.103  0.00  0.00    +0.000 N 
ATOM      5  C   UNL     1      -5.676   4.699  -0.334  0.00  0.00    +0.000 C 
ATOM      6  C   UNL     1      -6.427   5.125  -1.593  0.00  0.00    +0.000 C 
ATOM      7  C   UNL     1      -6.850   6.590  -1.462  0.00  0.00    +0.000 C 
ATOM      8  C   UNL     1      -5.606   7.470  -1.319  0.00  0.00    +0.000 C 
ATOM      9  C   UNL     1      -4.846   7.070  -0.050  0.00  0.00    +0.000 C 
BRANCH   7  10
ATOM     10  C   UNL     1      -7.619   7.003  -2.690  0.00  0.00    +0.000 C 
ATOM     11  O   UNL     1      -7.214   7.908  -3.380  0.00  0.00    +0.000 OA
BRANCH  10  12
ATOM     12  O   UNL     1      -8.753   6.365  -3.018  0.00  0.00    +0.000 OA
ATOM     13  C   UNL     1      -9.441   6.816  -4.214  0.00  0.00    +0.000 C 
ENDBRANCH  10  12
ENDBRANCH   7  10
ENDBRANCH   1   2
BRANCH   1  14
ATOM     14  S   UNL     1      -1.260   3.395   0.235  0.00  0.00    +0.000 S 
BRANCH  14  16
ATOM     15  N   UNL     1      -2.331   0.974  -0.080  0.00  0.00    +0.000 N 
ATOM     16  C   UNL     1      -1.226   1.637   0.126  0.00  0.00    +0.000 C 
ATOM     17  N   UNL     1      -0.034   0.963   0.256  0.00  0.00    +0.000 N 
ATOM     18  H   UNL     1      -3.213   1.481  -0.237  0.00  0.00    +0.000 HD
ATOM     19  H   UNL     1      -0.014  -0.065   0.192  0.00  0.00    +0.000 HD
ATOM     20  H   UNL     1       0.838   1.486   0.419  0.00  0.00    +0.000 HD
BRANCH  15  21
ATOM     21  C   UNL     1      -2.316  -0.491  -0.088  0.00  0.00    +0.000 C 
BRANCH  21  22
ATOM     22  C   UNL     1      -3.132  -1.016   1.094  0.00  0.00    +0.000 C 
BRANCH  22  24
ATOM     23  C   UNL     1      -5.357  -1.095   1.982  0.00  0.00    +0.000 C 
ATOM     24  O   UNL     1      -4.503  -0.651   0.926  0.00  0.00    +0.000 OA
ENDBRANCH  22  24
ENDBRANCH  21  22
ENDBRANCH  15  21
ENDBRANCH  14  16
ENDBRANCH   1  14
TORSDOF 8
ENDMDL
MODEL     1124
REMARK  Name = ZINC19526420
REMARK  12 active torsions:
REMARK  status: ('A' for Active; 'I' for Inactive)
REMARK    1  A    between atoms: C_1  and  C_2
REMARK    2  A    between atoms: C_2  and  N_3
REMARK    3  A    between atoms: N_3  and  C_4
REMARK    4  A    between atoms: N_3  and  C_6
REMARK    5  A    between atoms: C_4  and  C_5
REMARK    6  A    between atoms: C_6  and  C_7
REMARK    7  A    between atoms: C_7  and  N_8
REMARK    8  A    between atoms: N_13  and  C_14
REMARK    9  A    between atoms: C_14  and  C_15
REMARK   10  A    between atoms: C_15  and  C_17
REMARK   11  A    between atoms: C_18  and  O_19
REMARK   12  A    between atoms: N_23  and  C_24
REMARK                            x       y       z     vdW  Elec       q    Type
REMARK                         _______ _______ _______ _____ _____    ______ ____
ROOT
ATOM      1  N   UNL     1       0.156   2.324   1.093  0.00  0.00    +0.000 N 
ATOM      2  C   UNL     1       0.855   2.147   2.265  0.00  0.00    +0.000 A 
ATOM      3  N   UNL     1       1.883   1.337   2.424  0.00  0.00    +0.000 NA
ATOM      4  C   UNL     1       2.327   1.405   3.680  0.00  0.00    +0.000 A 
ATOM      5  C   UNL     1       1.527   2.318   4.359  0.00  0.00    +0.000 A 
ATOM      6  N   UNL     1       0.597   2.784   3.438  0.00  0.00    +0.000 N 
ATOM      7  C   UNL     1       1.784   2.580   5.716  0.00  0.00    +0.000 A 
ATOM      8  N   UNL     1       2.800   1.940   6.331  0.00  0.00    +0.000 NA
ATOM      9  C   UNL     1       3.567   1.059   5.665  0.00  0.00    +0.000 A 
ATOM     10  O   UNL     1       4.475   0.502   6.252  0.00  0.00    +0.000 OA
ATOM     11  N   UNL     1       3.356   0.780   4.365  0.00  0.00    +0.000 N 
ATOM     12  C   UNL     1       4.214  -0.187   3.675  0.00  0.00    +0.000 C 
ATOM     13  H   UNL     1      -0.637   2.981   1.061  0.00  0.00    +0.000 HD
ENDROOT
BRANCH   7  14
ATOM     14  O   UNL     1       1.095   3.376   6.331  0.00  0.00    +0.000 OA
ATOM     15  H   UNL     1       0.170   3.040   6.223  0.00  0.00    +0.000 HD
ENDBRANCH   7  14
BRANCH   6  16
ATOM     16  C   UNL     1      -0.458   3.769   3.684  0.00  0.00    +0.000 C 
BRANCH  16  17
ATOM     17  C   UNL     1      -1.708   3.063   4.141  0.00  0.00    +0.000 C 
ATOM     18  C   UNL     1      -1.960   2.938   5.420  0.00  0.00    +0.000 C 
ATOM     19  C   UNL     1      -2.670   2.500   3.126  0.00  0.00    +0.000 C 
ENDBRANCH  16  17
ENDBRANCH   6  16
BRANCH   1  20
ATOM     20  C   UNL     1       0.539   1.579  -0.108  0.00  0.00    +0.000 C 
BRANCH  20  21
ATOM     21  C   UNL     1      -0.392   1.958  -1.262  0.00  0.00    +0.000 C 
BRANCH  21  22
ATOM     22  N   UNL     1      -0.008   1.210  -2.467  0.00  0.00    +0.000 N 
ATOM     23  H   UNL     1       1.001   1.352  -2.619  0.00  0.00    +0.000 HD
BRANCH  22  24
ATOM     24  C   UNL     1      -0.719   1.716  -3.649  0.00  0.00    +0.000 C 
ATOM     25  C   UNL     1      -0.029   1.206  -4.915  0.00  0.00    +0.000 C 
ENDBRANCH  22  24
BRANCH  22  27
ATOM     26  C   UNL     1      -1.728  -0.479  -2.035  0.00  0.00    +0.000 C 
ATOM     27  C   UNL     1      -0.240  -0.229  -2.289  0.00  0.00    +0.000 C 
ENDBRANCH  22  27
ENDBRANCH  21  22
ENDBRANCH  20  21
ENDBRANCH   1  20
TORSDOF 8
ENDMDL
MODEL     1125
REMARK  Name = ZINC02660480
REMARK  7 active torsions:
REMARK  status: ('A' for Active; 'I' for Inactive)
REMARK    1  A    between atoms: C_2  and  C_3
REMARK    2  A    between atoms: C_2  and  N_19
REMARK    3  A    between atoms: C_6  and  S_9
REMARK    4  A    between atoms: S_9  and  N_12
REMARK    5  A    between atoms: N_12  and  C_13
REMARK    6  A    between atoms: C_13  and  C_14
REMARK    7  A    between atoms: N_19  and  N_20
REMARK                            x       y       z     vdW  Elec       q    Type
REMARK                         _______ _______ _______ _____ _____    ______ ____
ROOT
ATOM      1  C   UNL     1      -2.637  -0.652   0.012  0.00  0.00    +0.000 A 
ATOM      2  C   UNL     1      -2.195  -1.974  -0.005  0.00  0.00    +0.000 A 
ATOM      3  C   UNL     1      -3.112  -3.006  -0.002  0.00  0.00    +0.000 A 
ATOM      4  C   UNL     1      -4.467  -2.729   0.006  0.00  0.00    +0.000 A 
ATOM      5  C   UNL     1      -4.912  -1.419   0.018  0.00  0.00    +0.000 A 
ATOM      6  C   UNL     1      -4.004  -0.380   0.021  0.00  0.00    +0.000 A 
ENDROOT
BRANCH   4   7
ATOM      7  S   UNL     1      -5.632  -4.051   0.003  0.00  0.00    +0.000 S 
ATOM      8  O   UNL     1      -4.964  -5.183   0.542  0.00  0.00    +0.000 OA
ATOM      9  O   UNL     1      -6.832  -3.536   0.563  0.00  0.00    +0.000 OA
BRANCH   7  10
ATOM     10  N   UNL     1      -5.964  -4.407  -1.580  0.00  0.00    +0.000 NA
ATOM     11  H   UNL     1      -6.911  -4.254  -1.955  0.00  0.00    +0.000 HD
BRANCH  10  12
ATOM     12  C   UNL     1      -4.910  -4.939  -2.448  0.00  0.00    +0.000 C 
BRANCH  12  13
ATOM     13  C   UNL     1      -5.529  -5.517  -3.694  0.00  0.00    +0.000 A 
ATOM     14  C   UNL     1      -5.768  -4.848  -4.837  0.00  0.00    +0.000 A 
ATOM     15  C   UNL     1      -6.353  -5.769  -5.736  0.00  0.00    +0.000 A 
ATOM     16  C   UNL     1      -6.438  -6.945  -5.089  0.00  0.00    +0.000 A 
ATOM     17  O   UNL     1      -5.932  -6.788  -3.855  0.00  0.00    +0.000 OA
ENDBRANCH  12  13
ENDBRANCH  10  12
ENDBRANCH   7  10
ENDBRANCH   4   7
BRANCH   1  19
ATOM     18  C   UNL     1      -2.083   1.723   0.025  0.00  0.00    +0.000 C 
ATOM     19  C   UNL     1      -1.657   0.459   0.015  0.00  0.00    +0.000 C 
BRANCH  19  20
ATOM     20  N   UNL     1      -0.289   0.184   0.006  0.00  0.00    +0.000 N 
ATOM     21  H   UNL     1       0.039  -0.792   0.002  0.00  0.00    +0.000 HD
BRANCH  20  22
ATOM     22  N   UNL     1       0.637   1.235   0.003  0.00  0.00    +0.000 N 
ATOM     23  C   UNL     1       1.984   0.963  -0.012  0.00  0.00    +0.000 C 
ATOM     24  N   UNL     1       2.893   1.995  -0.015  0.00  0.00    +0.000 N 
ATOM     25  N   UNL     1       2.342  -0.313  -0.022  0.00  0.00    +0.000 N 
ATOM     26  H   UNL     1       0.308   2.211   0.011  0.00  0.00    +0.000 HD
ATOM     27  H   UNL     1       2.565   2.971  -0.006  0.00  0.00    +0.000 HD
ATOM     28  H   UNL     1       3.903   1.791  -0.026  0.00  0.00    +0.000 HD
ATOM     29  H   UNL     1       1.651  -1.077  -0.019  0.00  0.00    +0.000 HD
ATOM     30  H   UNL     1       3.347  -0.541  -0.033  0.00  0.00    +0.000 HD
ENDBRANCH  20  22
ENDBRANCH  19  20
ENDBRANCH   1  19
TORSDOF 7
ENDMDL
MODEL     1126
REMARK  Name = ZINC21815669
REMARK  8 active torsions:
REMARK  status: ('A' for Active; 'I' for Inactive)
REMARK    1  A    between atoms: C_3  and  C_7
REMARK    2  A    between atoms: C_7  and  N_8
REMARK    3  A    between atoms: N_8  and  C_9
REMARK    4  A    between atoms: N_8  and  S_13
REMARK    5  A    between atoms: C_9  and  C_10
REMARK    6  A    between atoms: C_10  and  C_11
REMARK    7  A    between atoms: C_11  and  N_12
REMARK    8  A    between atoms: S_13  and  N_16
REMARK                            x       y       z     vdW  Elec       q    Type
REMARK                         _______ _______ _______ _____ _____    ______ ____
ROOT
ATOM      1  N   UNL     1       2.881   4.133  -1.531  0.00  0.00    +0.000 NA
ENDROOT
BRANCH   1   2
ATOM      2  S   UNL     1       3.668   2.977  -2.418  0.00  0.00    +0.000 S 
ATOM      3  O   UNL     1       3.693   1.801  -1.621  0.00  0.00    +0.000 OA
ATOM      4  O   UNL     1       3.097   3.004  -3.718  0.00  0.00    +0.000 OA
BRANCH   2   5
ATOM      5  N   UNL     1       5.240   3.471  -2.582  0.00  0.00    +0.000 NA
ATOM      6  C   UNL     1       5.637   4.392  -3.659  0.00  0.00    +0.000 C 
ATOM      7  C   UNL     1       6.437   5.545  -3.032  0.00  0.00    +0.000 C 
ATOM      8  O   UNL     1       7.496   5.004  -2.239  0.00  0.00    +0.000 OA
ATOM      9  C   UNL     1       7.053   4.214  -1.133  0.00  0.00    +0.000 C 
ATOM     10  C   UNL     1       6.283   2.997  -1.658  0.00  0.00    +0.000 C 
ENDBRANCH   2   5
ENDBRANCH   1   2
BRANCH   1  11
ATOM     11  C   UNL     1       2.965   4.117  -0.068  0.00  0.00    +0.000 C 
BRANCH  11  14
ATOM     12  C   UNL     1       0.484   1.567   1.190  0.00  0.00    +0.000 A 
ATOM     13  C   UNL     1       1.648   2.108   0.664  0.00  0.00    +0.000 A 
ATOM     14  C   UNL     1       1.721   3.482   0.498  0.00  0.00    +0.000 A 
ATOM     15  C   UNL     1       0.639   4.263   0.860  0.00  0.00    +0.000 A 
ATOM     16  N   UNL     1      -0.452   3.714   1.357  0.00  0.00    +0.000 NA
ATOM     17  C   UNL     1      -0.559   2.410   1.523  0.00  0.00    +0.000 A 
ENDBRANCH  11  14
ENDBRANCH   1  11
BRANCH   1  18
ATOM     18  C   UNL     1       2.103   5.172  -2.209  0.00  0.00    +0.000 C 
BRANCH  18  19
ATOM     19  C   UNL     1       2.938   6.450  -2.312  0.00  0.00    +0.000 C 
BRANCH  19  20
ATOM     20  C   UNL     1       2.146   7.516  -3.073  0.00  0.00    +0.000 C 
BRANCH  20  21
ATOM     21  N   UNL     1       2.948   8.743  -3.172  0.00  0.00    +0.000 N 
ATOM     22  H   UNL     1       3.824   8.542  -3.675  0.00  0.00    +0.000 HD
ATOM     23  H   UNL     1       3.168   9.088  -2.227  0.00  0.00    +0.000 HD
ATOM     24  H   UNL     1       2.416   9.461  -3.684  0.00  0.00    +0.000 HD
ENDBRANCH  20  21
ENDBRANCH  19  20
ENDBRANCH  18  19
ENDBRANCH   1  18
TORSDOF 8
ENDMDL
MODEL     1127
REMARK  Name = ZINC12483756
REMARK  11 active torsions:
REMARK  status: ('A' for Active; 'I' for Inactive)
REMARK    1  A    between atoms: C_1  and  O_2
REMARK    2  A    between atoms: O_2  and  C_3
REMARK    3  A    between atoms: C_3  and  C_4
REMARK    4  A    between atoms: C_4  and  N_22
REMARK    5  A    between atoms: C_5  and  N_22
REMARK    6  A    between atoms: C_6  and  O_21
REMARK    7  A    between atoms: C_7  and  N_23
REMARK    8  A    between atoms: C_13  and  C_14
REMARK    9  A    between atoms: C_13  and  N_23
REMARK   10  A    between atoms: C_17  and  C_19
REMARK   11  A    between atoms: C_19  and  O_20
REMARK                            x       y       z     vdW  Elec       q    Type
REMARK                         _______ _______ _______ _____ _____    ______ ____
ROOT
ATOM      1  C   UNL     1       0.002  -0.004   0.002  0.00  0.00    +0.000 C 
ATOM      2  C   UNL     1      -1.312  -0.532  -0.583  0.00  0.00    +0.000 C 
ATOM      3  C   UNL     1      -2.459  -0.218   0.383  0.00  0.00    +0.000 C 
ATOM      4  C   UNL     1      -2.076  -0.731   1.781  0.00  0.00    +0.000 C 
ATOM      5  C   UNL     1      -1.486  -2.151   1.615  0.00  0.00    +0.000 C 
ATOM      6  O   UNL     1      -0.074  -1.947   1.429  0.00  0.00    +0.000 OA
ATOM      7  C   UNL     1       0.149  -0.525   1.440  0.00  0.00    +0.000 C 
ATOM      8  O   UNL     1      -0.929   0.038   2.219  0.00  0.00    +0.000 OA
ENDROOT
BRANCH   1   9
ATOM      9  N   UNL     1      -0.027   1.471   0.010  0.00  0.00    +0.000 N 
ATOM     10  H   UNL     1      -0.532   1.806  -0.822  0.00  0.00    +0.000 HD
ATOM     11  H   UNL     1      -0.515   1.797   0.856  0.00  0.00    +0.000 HD
BRANCH   9  12
ATOM     12  C   UNL     1       1.346   2.010   0.000  0.00  0.00    +0.000 C 
BRANCH  12  13
ATOM     13  C   UNL     1       1.285   3.539   0.009  0.00  0.00    +0.000 C 
BRANCH  13  15
ATOM     14  C   UNL     1       0.604   5.406   1.349  0.00  0.00    +0.000 C 
ATOM     15  O   UNL     1       0.708   3.985   1.238  0.00  0.00    +0.000 OA
ENDBRANCH  13  15
ENDBRANCH  12  13
ENDBRANCH   9  12
ENDBRANCH   1   9
BRANCH   2  16
ATOM     16  O   UNL     1      -1.218  -1.946  -0.768  0.00  0.00    +0.000 OA
ATOM     17  H   UNL     1      -1.046  -2.383   0.104  0.00  0.00    +0.000 HD
ENDBRANCH   2  16
BRANCH   3  18
ATOM     18  N   UNL     1      -2.671   1.241   0.431  0.00  0.00    +0.000 NA
ATOM     19  H   UNL     1      -2.009   1.660   1.101  0.00  0.00    +0.000 HD
BRANCH  18  20
ATOM     20  C   UNL     1      -4.051   1.546   0.854  0.00  0.00    +0.000 C 
BRANCH  20  21
ATOM     21  C   UNL     1      -4.237   3.040   0.894  0.00  0.00    +0.000 A 
ATOM     22  C   UNL     1      -4.651   3.809  -0.129  0.00  0.00    +0.000 A 
ATOM     23  C   UNL     1      -4.685   5.140   0.347  0.00  0.00    +0.000 A 
ATOM     24  C   UNL     1      -4.282   5.106   1.630  0.00  0.00    +0.000 A 
ATOM     25  O   UNL     1      -4.012   3.832   1.956  0.00  0.00    +0.000 OA
BRANCH  24  26
ATOM     26  C   UNL     1      -4.155   6.296   2.546  0.00  0.00    +0.000 C 
BRANCH  26  27
ATOM     27  O   UNL     1      -5.391   6.504   3.232  0.00  0.00    +0.000 OA
ATOM     28  H   UNL     1      -5.613   5.700   3.765  0.00  0.00    +0.000 HD
ENDBRANCH  26  27
ENDBRANCH  24  26
ENDBRANCH  20  21
ENDBRANCH  18  20
ENDBRANCH   3  18
TORSDOF 10
ENDMDL
MODEL     1128
REMARK  Name = ZINC00399536
REMARK  9 active torsions:
REMARK  status: ('A' for Active; 'I' for Inactive)
REMARK    1  A    between atoms: C_4  and  C_7
REMARK    2  A    between atoms: C_7  and  O_8
REMARK    3  A    between atoms: O_8  and  C_9
REMARK    4  A    between atoms: C_9  and  O_11
REMARK    5  A    between atoms: O_11  and  C_12
REMARK    6  A    between atoms: C_15  and  C_18
REMARK    7  A    between atoms: C_18  and  CA_19
REMARK    8  A    between atoms: CA_19  and  C_20
REMARK    9  A    between atoms: CA_19  and  N_23
REMARK                            x       y       z     vdW  Elec       q    Type
REMARK                         _______ _______ _______ _____ _____    ______ ____
ROOT
ATOM      1  C   UNL     1       2.235   1.092  -0.048  0.00  0.00    +0.000 A 
ATOM      2  C   UNL     1       2.079  -0.285  -0.121  0.00  0.00    +0.000 A 
ATOM      3  C   UNL     1       3.191  -1.102  -0.175  0.00  0.00    +0.000 A 
ATOM      4  C   UNL     1       4.459  -0.550  -0.146  0.00  0.00    +0.000 A 
ATOM      5  C   UNL     1       4.616   0.821  -0.068  0.00  0.00    +0.000 A 
ATOM      6  C   UNL     1       3.507   1.643  -0.018  0.00  0.00    +0.000 A 
ENDROOT
BRANCH   1   7
ATOM      7  O   UNL     1       1.142   1.899   0.001  0.00  0.00    +0.000 OA
BRANCH   7   8
ATOM      8  C   UNL     1       0.808   2.544  -1.131  0.00  0.00    +0.000 C 
ATOM      9  O   UNL     1       1.522   2.463  -2.110  0.00  0.00    +0.000 OA
BRANCH   8  10
ATOM     10  O   UNL     1      -0.315   3.284  -1.178  0.00  0.00    +0.000 OA
BRANCH  10  11
ATOM     11  C   UNL     1      -0.609   3.958  -2.430  0.00  0.00    +0.000 C 
BRANCH  11  15
ATOM     12  C   UNL     1      -4.253   6.153  -2.045  0.00  0.00    +0.000 A 
ATOM     13  C   UNL     1      -3.048   6.755  -1.737  0.00  0.00    +0.000 A 
ATOM     14  C   UNL     1      -1.869   6.045  -1.861  0.00  0.00    +0.000 A 
ATOM     15  C   UNL     1      -1.895   4.732  -2.294  0.00  0.00    +0.000 A 
ATOM     16  C   UNL     1      -3.100   4.132  -2.607  0.00  0.00    +0.000 A 
ATOM     17  C   UNL     1      -4.280   4.840  -2.477  0.00  0.00    +0.000 A 
ENDBRANCH  11  15
ENDBRANCH  10  11
ENDBRANCH   8  10
ENDBRANCH   7   8
ENDBRANCH   1   7
BRANCH   4  18
ATOM     18  C   UNL     1       5.670  -1.445  -0.198  0.00  0.00    +0.000 C 
BRANCH  18  19
ATOM     19  CA  UNL     1       6.082  -1.830   1.224  0.00  0.00    +0.000 C 
BRANCH  19  20
ATOM     20  N   UNL     1       6.496  -0.615   1.948  0.00  0.00    +0.000 N 
ATOM     21  H1  UNL     1       5.712   0.051   1.988  0.00  0.00    +0.000 HD
ATOM     22  H2  UNL     1       7.295  -0.178   1.467  0.00  0.00    +0.000 HD
ATOM     23  H3  UNL     1       6.774  -0.869   2.906  0.00  0.00    +0.000 HD
ENDBRANCH  19  20
BRANCH  19  24
ATOM     24  C   UNL     1       7.216  -2.821   1.168  0.00  0.00    +0.000 C 
ATOM     25  O   UNL     1       8.353  -2.449   1.340  0.00  0.00    +0.000 OA
ATOM     26  OXT UNL     1       6.963  -4.117   0.926  0.00  0.00    +0.000 OA
ENDBRANCH  19  24
ENDBRANCH  18  19
ENDBRANCH   4  18
TORSDOF 9
ENDMDL
MODEL     1129
REMARK  Name = ZINC06094146
REMARK  9 active torsions:
REMARK  status: ('A' for Active; 'I' for Inactive)
REMARK    1  A    between atoms: C_6  and  O_7
REMARK    2  A    between atoms: C_8  and  C_11
REMARK    3  A    between atoms: C_11  and  C_12
REMARK    4  A    between atoms: C_12  and  N_13
REMARK    5  A    between atoms: C_14  and  C_16
REMARK    6  A    between atoms: C_16  and  C_17
REMARK    7  A    between atoms: C_16  and  N_22
REMARK    8  A    between atoms: C_17  and  C_18
REMARK    9  A    between atoms: C_18  and  C_19
REMARK                            x       y       z     vdW  Elec       q    Type
REMARK                         _______ _______ _______ _____ _____    ______ ____
ROOT
ATOM      1  C   UNL     1       5.407   1.968  -1.472  0.00  0.00    +0.000 C 
ENDROOT
BRANCH   1   2
ATOM      2  N   UNL     1       6.853   1.732  -1.486  0.00  0.00    +0.000 N 
ATOM      3  C   UNL     1       7.492   1.529  -2.655  0.00  0.00    +0.000 C 
ATOM      4  O   UNL     1       6.870   1.542  -3.696  0.00  0.00    +0.000 OA
ATOM      5  H   UNL     1       7.382   1.721  -0.602  0.00  0.00    +0.000 HD
BRANCH   3   6
ATOM      6  C   UNL     1       8.979   1.286  -2.669  0.00  0.00    +0.000 C 
BRANCH   6   7
ATOM      7  N   UNL     1       9.343   0.616  -3.930  0.00  0.00    +0.000 N 
ATOM      8  H   UNL     1       9.086   1.213  -4.729  0.00  0.00    +0.000 HD
ATOM      9  H   UNL     1       8.848  -0.285  -4.000  0.00  0.00    +0.000 HD
ATOM     10  H   UNL     1      10.359   0.447  -3.945  0.00  0.00    +0.000 HD
ENDBRANCH   6   7
BRANCH   6  11
ATOM     11  C   UNL     1       9.715   2.622  -2.542  0.00  0.00    +0.000 C 
BRANCH  11  12
ATOM     12  C   UNL     1      11.220   2.366  -2.431  0.00  0.00    +0.000 C 
BRANCH  12  13
ATOM     13  C   UNL     1      11.945   3.681  -2.307  0.00  0.00    +0.000 C 
ATOM     14  O   UNL     1      11.322   4.717  -2.307  0.00  0.00    +0.000 OA
ATOM     15  O   UNL     1      13.282   3.702  -2.195  0.00  0.00    +0.000 OA
ENDBRANCH  12  13
ENDBRANCH  11  12
ENDBRANCH   6  11
ENDBRANCH   3   6
ENDBRANCH   1   2
BRANCH   1  16
ATOM     16  C   UNL     1       4.937   2.167  -0.030  0.00  0.00    +0.000 C 
BRANCH  16  23
ATOM     17  C   UNL     1       0.002  -0.004   0.002  0.00  0.00    +0.000 A 
ATOM     18  C   UNL     1      -0.017   1.373   0.010  0.00  0.00    +0.000 A 
ATOM     19  C   UNL     1       1.178   2.084   0.002  0.00  0.00    +0.000 A 
ATOM     20  C   UNL     1       2.400   1.388  -0.013  0.00  0.00    +0.000 A 
ATOM     21  C   UNL     1       2.407  -0.009  -0.021  0.00  0.00    +0.000 A 
ATOM     22  C   UNL     1       1.210  -0.697  -0.013  0.00  0.00    +0.000 A 
ATOM     23  C   UNL     1       3.449   2.410  -0.016  0.00  0.00    +0.000 A 
ATOM     24  C   UNL     1       2.836   3.603  -0.004  0.00  0.00    +0.000 A 
ATOM     25  N   UNL     1       1.479   3.430   0.007  0.00  0.00    +0.000 N 
ATOM     26  H   UNL     1       0.785   4.192   0.018  0.00  0.00    +0.000 HD
BRANCH  22  27
ATOM     27  O   UNL     1       1.210  -2.057  -0.021  0.00  0.00    +0.000 OA
ATOM     28  H   UNL     1       0.673  -2.308  -0.813  0.00  0.00    +0.000 HD
ENDBRANCH  22  27
ENDBRANCH  16  23
ENDBRANCH   1  16
TORSDOF 9
ENDMDL
MODEL     1130
REMARK  Name = ZINC31599770
REMARK  7 active torsions:
REMARK  status: ('A' for Active; 'I' for Inactive)
REMARK    1  A    between atoms: C_4  and  S_7
REMARK    2  A    between atoms: S_7  and  C_8
REMARK    3  A    between atoms: C_8  and  C_9
REMARK    4  A    between atoms: C_9  and  N_10
REMARK    5  A    between atoms: C_11  and  C_12
REMARK    6  A    between atoms: C_12  and  S_13
REMARK    7  A    between atoms: S_13  and  S_14
REMARK                            x       y       z     vdW  Elec       q    Type
REMARK                         _______ _______ _______ _____ _____    ______ ____
ROOT
ATOM      1  N   UNL     1      -0.915   1.476   6.784  0.00  0.00    +0.000 N 
ATOM      2  C   UNL     1      -1.767   0.619   7.244  0.00  0.00    +0.000 C 
ATOM      3  N   UNL     1      -1.597  -0.717   6.994  0.00  0.00    +0.000 N 
ATOM      4  H   UNL     1      -1.094   2.485   6.884  0.00  0.00    +0.000 HD
ATOM      5  H   UNL     1      -0.791  -1.039   6.440  0.00  0.00    +0.000 HD
ATOM      6  H   UNL     1      -2.276  -1.400   7.361  0.00  0.00    +0.000 HD
ENDROOT
BRANCH   1   7
ATOM      7  C   UNL     1       0.306   1.012   6.120  0.00  0.00    +0.000 C 
BRANCH   7   8
ATOM      8  C   UNL     1       0.290   1.453   4.655  0.00  0.00    +0.000 C 
BRANCH   8   9
ATOM      9  S   UNL     1       1.801   0.878   3.833  0.00  0.00    +0.000 S 
BRANCH   9  13
ATOM     10  C   UNL     1       2.660   2.982  -0.162  0.00  0.00    +0.000 C 
ATOM     11  C   UNL     1       2.644   1.453  -0.153  0.00  0.00    +0.000 C 
ATOM     12  C   UNL     1       2.790   0.949   1.284  0.00  0.00    +0.000 C 
ATOM     13  C   UNL     1       1.628   1.476   2.129  0.00  0.00    +0.000 C 
ATOM     14  C   UNL     1       1.644   3.005   2.121  0.00  0.00    +0.000 C 
ATOM     15  C   UNL     1       1.499   3.509   0.684  0.00  0.00    +0.000 C 
ENDBRANCH   9  13
ENDBRANCH   8   9
ENDBRANCH   7   8
ENDBRANCH   1   7
BRANCH   2  16
ATOM     16  C   UNL     1      -2.947   1.090   8.055  0.00  0.00    +0.000 C 
BRANCH  16  17
ATOM     17  S   UNL     1      -2.892   2.897   8.209  0.00  0.00    +0.000 S 
BRANCH  17  18
ATOM     18  S   UNL     1      -3.314   3.569   6.319  0.00  0.00    +0.000 S 
ATOM     19  O   UNL     1      -3.082   4.971   6.325  0.00  0.00    +0.000 OA
ATOM     20  O   UNL     1      -2.652   2.691   5.418  0.00  0.00    +0.000 OA
ATOM     21  O   UNL     1      -4.807   3.376   6.096  0.00  0.00    +0.000 OA
ENDBRANCH  17  18
ENDBRANCH  16  17
ENDBRANCH   2  16
TORSDOF 7
ENDMDL
MODEL     1131
REMARK  Name = ZINC19751869
REMARK  11 active torsions:
REMARK  status: ('A' for Active; 'I' for Inactive)
REMARK    1  A    between atoms: C_1  and  C_2
REMARK    2  A    between atoms: C_2  and  C_3
REMARK    3  A    between atoms: C_3  and  C_4
REMARK    4  A    between atoms: C_3  and  N_7
REMARK    5  A    between atoms: C_10  and  O_21
REMARK    6  A    between atoms: C_11  and  O_19
REMARK    7  A    between atoms: C_15  and  C_16
REMARK    8  A    between atoms: C_16  and  C_17
REMARK    9  A    between atoms: C_17  and  N_18
REMARK   10  A    between atoms: O_19  and  C_20
REMARK   11  A    between atoms: O_21  and  C_22
REMARK                            x       y       z     vdW  Elec       q    Type
REMARK                         _______ _______ _______ _____ _____    ______ ____
ROOT
ATOM      1  N   UNL     1       3.376  -0.718   0.014  0.00  0.00    +0.000 N 
ATOM      2  C   UNL     1       2.328   0.182  -0.025  0.00  0.00    +0.000 A 
ATOM      3  C   UNL     1       2.241   1.551  -0.241  0.00  0.00    +0.000 A 
ATOM      4  C   UNL     1       1.008   2.174  -0.216  0.00  0.00    +0.000 A 
ATOM      5  C   UNL     1      -0.151   1.433   0.025  0.00  0.00    +0.000 A 
ATOM      6  C   UNL     1      -0.077   0.073   0.240  0.00  0.00    +0.000 A 
ATOM      7  C   UNL     1       1.165  -0.568   0.217  0.00  0.00    +0.000 A 
ATOM      8  N   UNL     1       1.554  -1.858   0.389  0.00  0.00    +0.000 NA
ATOM      9  C   UNL     1       2.847  -1.946   0.269  0.00  0.00    +0.000 A 
ENDROOT
BRANCH   4  10
ATOM     10  O   UNL     1       0.922   3.515  -0.427  0.00  0.00    +0.000 OA
ATOM     11  C   UNL     1       2.146   4.213  -0.668  0.00  0.00    +0.000 C 
ENDBRANCH   4  10
BRANCH   5  12
ATOM     12  O   UNL     1      -1.361   2.055   0.042  0.00  0.00    +0.000 OA
ATOM     13  C   UNL     1      -2.508   1.239   0.288  0.00  0.00    +0.000 C 
ENDBRANCH   5  12
BRANCH   1  14
ATOM     14  C   UNL     1       4.795  -0.408  -0.184  0.00  0.00    +0.000 C 
BRANCH  14  15
ATOM     15  C   UNL     1       5.291  -1.099  -1.428  0.00  0.00    +0.000 C 
ATOM     16  O   UNL     1       4.537  -1.780  -2.083  0.00  0.00    +0.000 OA
ATOM     17  O   UNL     1       6.570  -0.958  -1.810  0.00  0.00    +0.000 OA
ENDBRANCH  14  15
BRANCH  14  19
ATOM     18  C   UNL     1       7.046  -0.422   0.899  0.00  0.00    +0.000 C 
ATOM     19  C   UNL     1       5.596  -0.896   1.024  0.00  0.00    +0.000 C 
ENDBRANCH  14  19
ENDBRANCH   1  14
BRANCH   9  20
ATOM     20  C   UNL     1       3.641  -3.220   0.396  0.00  0.00    +0.000 C 
BRANCH  20  21
ATOM     21  C   UNL     1       3.910  -3.508   1.874  0.00  0.00    +0.000 C 
BRANCH  21  22
ATOM     22  N   UNL     1       4.791  -4.678   1.992  0.00  0.00    +0.000 N 
ATOM     23  H   UNL     1       5.683  -4.487   1.513  0.00  0.00    +0.000 HD
ATOM     24  H   UNL     1       4.338  -5.496   1.560  0.00  0.00    +0.000 HD
ATOM     25  H   UNL     1       4.973  -4.873   2.987  0.00  0.00    +0.000 HD
ENDBRANCH  21  22
ENDBRANCH  20  21
ENDBRANCH   9  20
TORSDOF 8
ENDMDL
MODEL     1132
REMARK  Name = ZINC27110503
REMARK  11 active torsions:
REMARK  status: ('A' for Active; 'I' for Inactive)
REMARK    1  A    between atoms: C_1  and  C_2
REMARK    2  A    between atoms: C_2  and  C_3
REMARK    3  A    between atoms: C_3  and  C_22
REMARK    4  A    between atoms: N_6  and  N_10
REMARK    5  A    between atoms: C_11  and  C_13
REMARK    6  A    between atoms: C_13  and  N_14
REMARK    7  A    between atoms: N_14  and  C_15
REMARK    8  A    between atoms: N_14  and  C_19
REMARK    9  A    between atoms: C_15  and  C_16
REMARK   10  A    between atoms: C_16  and  C_17
REMARK   11  A    between atoms: C_16  and  C_18
REMARK                            x       y       z     vdW  Elec       q    Type
REMARK                         _______ _______ _______ _____ _____    ______ ____
ROOT
ATOM      1  N   UNL     1       1.928  -4.954  -2.904  0.00  0.00    +0.000 N 
ATOM      2  C   UNL     1       1.205  -4.085  -2.170  0.00  0.00    +0.000 C 
ATOM      3  O   UNL     1       0.360  -4.496  -1.403  0.00  0.00    +0.000 OA
ATOM      4  H   UNL     1       2.646  -4.605  -3.555  0.00  0.00    +0.000 HD
ENDROOT
BRANCH   1   8
ATOM      5  C   UNL     1       1.891  -8.546  -2.253  0.00  0.00    +0.000 C 
ATOM      6  C   UNL     1       2.529  -7.176  -2.130  0.00  0.00    +0.000 C 
ATOM      7  O   UNL     1       3.564  -6.899  -1.563  0.00  0.00    +0.000 OA
ATOM      8  N   UNL     1       1.705  -6.331  -2.780  0.00  0.00    +0.000 N 
ATOM      9  C   UNL     1       0.650  -6.971  -3.298  0.00  0.00    +0.000 C 
ATOM     10  O   UNL     1      -0.229  -6.421  -3.933  0.00  0.00    +0.000 OA
ATOM     11  N   UNL     1       0.671  -8.291  -3.039  0.00  0.00    +0.000 NA
ATOM     12  C   UNL     1       1.536  -9.105  -0.874  0.00  0.00    +0.000 C 
BRANCH   5  14
ATOM     13  C   UNL     1       2.068 -10.801  -3.315  0.00  0.00    +0.000 C 
ATOM     14  C   UNL     1       2.820  -9.506  -2.999  0.00  0.00    +0.000 C 
ENDBRANCH   5  14
ENDBRANCH   1   8
BRANCH   2  15
ATOM     15  C   UNL     1       1.445  -2.603  -2.303  0.00  0.00    +0.000 C 
BRANCH  15  16
ATOM     16  N   UNL     1       0.560  -1.879  -1.381  0.00  0.00    +0.000 N 
ATOM     17  H   UNL     1       0.581  -2.366  -0.474  0.00  0.00    +0.000 HD
BRANCH  16  18
ATOM     18  C   UNL     1      -0.826  -1.888  -1.866  0.00  0.00    +0.000 C 
ATOM     19  C   UNL     1      -1.125  -2.685  -3.138  0.00  0.00    +0.000 C 
ATOM     20  C   UNL     1      -1.121  -1.155  -3.177  0.00  0.00    +0.000 C 
ENDBRANCH  16  18
BRANCH  16  21
ATOM     21  C   UNL     1       1.034  -0.505  -1.166  0.00  0.00    +0.000 C 
BRANCH  21  22
ATOM     22  C   UNL     1       0.244   0.134  -0.023  0.00  0.00    +0.000 C 
ATOM     23  C   UNL     1       0.650   1.603   0.119  0.00  0.00    +0.000 C 
ATOM     24  C   UNL     1       0.546  -0.606   1.282  0.00  0.00    +0.000 C 
ENDBRANCH  21  22
ENDBRANCH  16  21
ENDBRANCH  15  16
ENDBRANCH   2  15
TORSDOF 7
ENDMDL
MODEL     1133
REMARK  Name = ZINC09358663
REMARK  9 active torsions:
REMARK  status: ('A' for Active; 'I' for Inactive)
REMARK    1  A    between atoms: C_1  and  C_2
REMARK    2  A    between atoms: C_2  and  C_3
REMARK    3  A    between atoms: C_3  and  C_4
REMARK    4  A    between atoms: C_4  and  C_5
REMARK    5  A    between atoms: C_5  and  C_6
REMARK    6  A    between atoms: C_6  and  N_7
REMARK    7  A    between atoms: C_10  and  C_11
REMARK    8  A    between atoms: N_12  and  C_13
REMARK    9  A    between atoms: C_18  and  N_24
REMARK                            x       y       z     vdW  Elec       q    Type
REMARK                         _______ _______ _______ _____ _____    ______ ____
ROOT
ATOM      1  N   UNL     1      -0.377  -0.045   0.019  0.00  0.00    +0.000 N 
ATOM      2  C   UNL     1      -0.157  -0.682  -1.151  0.00  0.00    +0.000 C 
ATOM      3  O   UNL     1       0.077  -0.061  -2.171  0.00  0.00    +0.000 OA
ATOM      4  C   UNL     1      -0.202  -2.155  -1.151  0.00  0.00    +0.000 C 
ATOM      5  C   UNL     1      -0.497  -2.814   0.129  0.00  0.00    +0.000 C 
ATOM      6  N   UNL     1      -0.698  -2.058   1.196  0.00  0.00    +0.000 NA
ATOM      7  C   UNL     1      -0.639  -0.730   1.141  0.00  0.00    +0.000 C 
ATOM      8  O   UNL     1      -0.835  -0.102   2.167  0.00  0.00    +0.000 OA
ATOM      9  O   UNL     1      -0.563  -4.159   0.214  0.00  0.00    +0.000 OA
ENDROOT
BRANCH   4  10
ATOM     10  C   UNL     1       0.018  -2.887  -2.308  0.00  0.00    +0.000 C 
ATOM     11  N   UNL     1       0.137  -4.227  -2.245  0.00  0.00    +0.000 NA
BRANCH  11  12
ATOM     12  C   UNL     1       0.245  -5.011  -3.477  0.00  0.00    +0.000 C 
ATOM     13  C   UNL     1      -1.155  -5.308  -4.018  0.00  0.00    +0.000 C 
ATOM     14  C   UNL     1      -1.946  -6.102  -2.976  0.00  0.00    +0.000 C 
ATOM     15  C   UNL     1      -1.224  -7.418  -2.680  0.00  0.00    +0.000 C 
ATOM     16  C   UNL     1       0.176  -7.121  -2.140  0.00  0.00    +0.000 C 
ATOM     17  C   UNL     1       0.968  -6.327  -3.182  0.00  0.00    +0.000 C 
BRANCH  17  18
ATOM     18  N   UNL     1       2.306  -6.030  -2.642  0.00  0.00    +0.000 N 
ATOM     19  H   UNL     1       2.217  -5.486  -1.772  0.00  0.00    +0.000 HD
ATOM     20  H   UNL     1       2.847  -5.490  -3.332  0.00  0.00    +0.000 HD
ATOM     21  H   UNL     1       2.796  -6.913  -2.442  0.00  0.00    +0.000 HD
ENDBRANCH  17  18
ENDBRANCH  11  12
ENDBRANCH   4  10
BRANCH   1  22
ATOM     22  C   UNL     1      -0.336   1.419   0.061  0.00  0.00    +0.000 C 
BRANCH  22  23
ATOM     23  C   UNL     1       1.088   1.880   0.375  0.00  0.00    +0.000 C 
BRANCH  23  24
ATOM     24  C   UNL     1       1.131   3.409   0.419  0.00  0.00    +0.000 C 
BRANCH  24  25
ATOM     25  C   UNL     1       2.556   3.870   0.733  0.00  0.00    +0.000 C 
BRANCH  25  27
ATOM     26  C   UNL     1       4.024   5.860   1.091  0.00  0.00    +0.000 C 
ATOM     27  C   UNL     1       2.599   5.399   0.777  0.00  0.00    +0.000 C 
ENDBRANCH  25  27
ENDBRANCH  24  25
ENDBRANCH  23  24
ENDBRANCH  22  23
ENDBRANCH   1  22
TORSDOF 8
ENDMDL
MODEL     1134
REMARK  Name = ZINC17258621
REMARK  10 active torsions:
REMARK  status: ('A' for Active; 'I' for Inactive)
REMARK    1  A    between atoms: C_3  and  C_5
REMARK    2  A    between atoms: C_3  and  C_21
REMARK    3  A    between atoms: C_5  and  N_6
REMARK    4  A    between atoms: N_6  and  C_7
REMARK    5  A    between atoms: C_9  and  O_13
REMARK    6  A    between atoms: O_13  and  C_14
REMARK    7  A    between atoms: C_14  and  C_15
REMARK    8  A    between atoms: C_15  and  C_19
REMARK    9  A    between atoms: C_19  and  O_20
REMARK   10  A    between atoms: C_21  and  O_22
REMARK                            x       y       z     vdW  Elec       q    Type
REMARK                         _______ _______ _______ _____ _____    ______ ____
ROOT
ATOM      1  C   UNL     1      -0.138   0.471   0.961  0.00  0.00    +0.000 C 
ATOM      2  C   UNL     1       0.948  -0.076   1.484  0.00  0.00    +0.000 C 
ATOM      3  C   UNL     1       2.143   0.742   1.895  0.00  0.00    +0.000 C 
ATOM      4  N   UNL     1       2.037   2.087   1.307  0.00  0.00    +0.000 N 
ATOM      5  C   UNL     1       0.767   2.653   1.283  0.00  0.00    +0.000 C 
ATOM      6  N   UNL     1      -0.232   1.847   0.752  0.00  0.00    +0.000 N 
ATOM      7  N   UNL     1       0.593   3.881   1.749  0.00  0.00    +0.000 N 
ATOM      8  H   UNL     1       2.859   2.582   0.934  0.00  0.00    +0.000 HD
ATOM      9  H   UNL     1      -1.016   2.252   0.221  0.00  0.00    +0.000 HD
ATOM     10  H   UNL     1       1.390   4.414   2.127  0.00  0.00    +0.000 HD
ATOM     11  H   UNL     1      -0.345   4.305   1.733  0.00  0.00    +0.000 HD
ENDROOT
BRANCH   1  12
ATOM     12  N   UNL     1      -1.211  -0.342   0.618  0.00  0.00    +0.000 N 
ATOM     13  H   UNL     1      -1.156  -1.359   0.771  0.00  0.00    +0.000 HD
BRANCH  12  14
ATOM     14  C   UNL     1      -2.421   0.247   0.038  0.00  0.00    +0.000 C 
BRANCH  14  17
ATOM     15  C   UNL     1      -5.297  -1.661   0.101  0.00  0.00    +0.000 C 
ATOM     16  C   UNL     1      -3.943  -1.663   0.830  0.00  0.00    +0.000 C 
ATOM     17  C   UNL     1      -3.388  -0.868  -0.364  0.00  0.00    +0.000 C 
ATOM     18  C   UNL     1      -4.825  -0.379  -0.608  0.00  0.00    +0.000 C 
BRANCH  17  19
ATOM     19  C   UNL     1      -2.842  -1.752  -1.488  0.00  0.00    +0.000 C 
BRANCH  19  20
ATOM     20  O   UNL     1      -2.620  -0.957  -2.654  0.00  0.00    +0.000 OA
ATOM     21  H   UNL     1      -1.965  -0.243  -2.448  0.00  0.00    +0.000 HD
ENDBRANCH  19  20
ENDBRANCH  17  19
ENDBRANCH  14  17
ENDBRANCH  12  14
ENDBRANCH   1  12
BRANCH   3  22
ATOM     22  O   UNL     1       2.183   0.846   3.320  0.00  0.00    +0.000 OA
BRANCH  22  23
ATOM     23  C   UNL     1       3.395   1.408   3.828  0.00  0.00    +0.000 C 
BRANCH  23  24
ATOM     24  C   UNL     1       3.327   1.471   5.355  0.00  0.00    +0.000 C 
ATOM     25  C   UNL     1       2.537   2.678   5.887  0.00  0.00    +0.000 C 
ATOM     26  C   UNL     1       3.616   2.801   6.978  0.00  0.00    +0.000 C 
ATOM     27  C   UNL     1       4.573   2.097   6.002  0.00  0.00    +0.000 C 
BRANCH  24  28
ATOM     28  C   UNL     1       2.912   0.140   5.986  0.00  0.00    +0.000 C 
BRANCH  28  29
ATOM     29  O   UNL     1       1.730  -0.343   5.345  0.00  0.00    +0.000 OA
ATOM     30  H   UNL     1       1.908  -0.478   4.381  0.00  0.00    +0.000 HD
ENDBRANCH  28  29
ENDBRANCH  24  28
ENDBRANCH  23  24
ENDBRANCH  22  23
ENDBRANCH   3  22
TORSDOF 10
ENDMDL
MODEL     1135
REMARK  Name = ZINC31971727
REMARK  11 active torsions:
REMARK  status: ('A' for Active; 'I' for Inactive)
REMARK    1  A    between atoms: C_1  and  O_2
REMARK    2  A    between atoms: O_2  and  C_3
REMARK    3  A    between atoms: C_5  and  N_17
REMARK    4  A    between atoms: C_6  and  N_11
REMARK    5  A    between atoms: C_8  and  O_9
REMARK    6  A    between atoms: O_9  and  C_10
REMARK    7  A    between atoms: C_12  and  C_14
REMARK    8  A    between atoms: C_18  and  C_20
REMARK    9  A    between atoms: C_20  and  C_21
REMARK   10  A    between atoms: C_21  and  C_22
REMARK   11  A    between atoms: C_22  and  N_23
REMARK                            x       y       z     vdW  Elec       q    Type
REMARK                         _______ _______ _______ _____ _____    ______ ____
ROOT
ATOM      1  C   UNL     1       0.113  -4.124   0.182  0.00  0.00    +0.000 A 
ATOM      2  C   UNL     1       0.042  -2.742   0.109  0.00  0.00    +0.000 A 
ATOM      3  C   UNL     1       0.649  -2.071  -0.942  0.00  0.00    +0.000 A 
ATOM      4  C   UNL     1       1.325  -2.789  -1.928  0.00  0.00    +0.000 A 
ATOM      5  C   UNL     1       1.399  -4.172  -1.850  0.00  0.00    +0.000 A 
ATOM      6  C   UNL     1       0.792  -4.840  -0.798  0.00  0.00    +0.000 A 
ENDROOT
BRANCH   3   7
ATOM      7  N   UNL     1       0.578  -0.673  -1.017  0.00  0.00    +0.000 N 
ATOM      8  C   UNL     1      -0.436  -0.017  -0.418  0.00  0.00    +0.000 C 
ATOM      9  O   UNL     1      -1.340  -0.640   0.098  0.00  0.00    +0.000 OA
ATOM     10  H   UNL     1       1.300  -0.147  -1.529  0.00  0.00    +0.000 HD
BRANCH   8  11
ATOM     11  C   UNL     1      -0.447   1.490  -0.392  0.00  0.00    +0.000 C 
BRANCH  11  12
ATOM     12  C   UNL     1      -1.698   1.977   0.342  0.00  0.00    +0.000 C 
BRANCH  12  13
ATOM     13  C   UNL     1      -1.709   3.507   0.370  0.00  0.00    +0.000 C 
BRANCH  13  14
ATOM     14  N   UNL     1      -2.910   3.975   1.074  0.00  0.00    +0.000 N 
ATOM     15  H   UNL     1      -2.906   3.615   2.039  0.00  0.00    +0.000 HD
ATOM     16  H   UNL     1      -3.751   3.635   0.585  0.00  0.00    +0.000 HD
ATOM     17  H   UNL     1      -2.918   5.005   1.093  0.00  0.00    +0.000 HD
ENDBRANCH  13  14
ENDBRANCH  12  13
ENDBRANCH  11  12
ENDBRANCH   8  11
ENDBRANCH   3   7
BRANCH   4  18
ATOM     18  N   UNL     1       1.934  -2.113  -2.995  0.00  0.00    +0.000 N 
ATOM     19  C   UNL     1       2.972  -2.676  -3.644  0.00  0.00    +0.000 C 
ATOM     20  O   UNL     1       3.444  -3.719  -3.245  0.00  0.00    +0.000 OA
ATOM     21  H   UNL     1       1.588  -1.186  -3.282  0.00  0.00    +0.000 HD
BRANCH  19  22
ATOM     22  C   UNL     1       3.547  -2.009  -4.867  0.00  0.00    +0.000 C 
ATOM     23  C   UNL     1       3.341  -2.705  -6.214  0.00  0.00    +0.000 C 
ATOM     24  C   UNL     1       4.724  -2.697  -5.561  0.00  0.00    +0.000 C 
ENDBRANCH  19  22
ENDBRANCH   4  18
BRANCH   6  25
ATOM     25  O   UNL     1       0.861  -6.197  -0.725  0.00  0.00    +0.000 OA
ATOM     26  C   UNL     1       1.575  -6.867  -1.766  0.00  0.00    +0.000 C 
ENDBRANCH   6  25
BRANCH   1  28
ATOM     27  C   UNL     1      -1.163  -3.984   2.185  0.00  0.00    +0.000 C 
ATOM     28  O   UNL     1      -0.483  -4.782   1.214  0.00  0.00    +0.000 OA
ENDBRANCH   1  28
TORSDOF 9
ENDMDL
MODEL     1136
REMARK  Name = ZINC12249881
REMARK  10 active torsions:
REMARK  status: ('A' for Active; 'I' for Inactive)
REMARK    1  A    between atoms: CB_1  and  CA_2
REMARK    2  A    between atoms: CA_2  and  C_3
REMARK    3  A    between atoms: CA_2  and  N_22
REMARK    4  A    between atoms: C_5  and  C_6
REMARK    5  A    between atoms: C_5  and  N_22
REMARK    6  A    between atoms: C_6  and  C_7
REMARK    7  A    between atoms: C_6  and  O_20
REMARK    8  A    between atoms: C_7  and  N_8
REMARK    9  A    between atoms: C_10  and  C_17
REMARK   10  A    between atoms: N_18  and  O_19
REMARK                            x       y       z     vdW  Elec       q    Type
REMARK                         _______ _______ _______ _____ _____    ______ ____
ROOT
ATOM      1  C   UNK A   0       2.040   1.127  -1.261  0.00  0.00    +0.000 C 
ENDROOT
BRANCH   1   2
ATOM      2  N   UNK A   0       1.359   1.658  -2.445  0.00  0.00    +0.000 N 
ATOM      3  C   UNK A   0       0.447   0.976  -3.188  0.00  0.00    +0.000 A 
ATOM      4  C   UNK A   0       0.010   1.759  -4.212  0.00  0.00    +0.000 A 
ATOM      5  C   UNK A   0       0.726   3.042  -4.093  0.00  0.00    +0.000 A 
ATOM      6  C   UNK A   0       1.557   2.919  -2.968  0.00  0.00    +0.000 A 
ATOM      7  C   UNK A   0       2.367   3.987  -2.598  0.00  0.00    +0.000 A 
ATOM      8  C   UNK A   0       2.349   5.151  -3.334  0.00  0.00    +0.000 A 
ATOM      9  C   UNK A   0       1.528   5.272  -4.446  0.00  0.00    +0.000 A 
ATOM     10  C   UNK A   0       0.718   4.225  -4.829  0.00  0.00    +0.000 A 
BRANCH   4  11
ATOM     11  C   UNK A   0      -0.979   1.395  -5.238  0.00  0.00    +0.000 C 
ATOM     12  N   UNK A   0      -1.297   2.246  -6.162  0.00  0.00    +0.000 NA
BRANCH  12  13
ATOM     13  O   UNK A   0      -2.249   1.895  -7.150  0.00  0.00    +0.000 OA
ATOM     14  H   UNK A   0      -3.063   1.640  -6.647  0.00  0.00    +0.000 HD
ENDBRANCH  12  13
ENDBRANCH   4  11
ENDBRANCH   1   2
BRANCH   1  15
ATOM     15  C   UNK A   0       1.286   1.562  -0.002  0.00  0.00    +0.000 C 
BRANCH  15  16
ATOM     16  O   UNK A   0      -0.011   0.963   0.007  0.00  0.00    +0.000 OA
ATOM     17  H   UNK A   0      -0.499   1.244   0.821  0.00  0.00    +0.000 HD
ENDBRANCH  15  16
BRANCH  15  18
ATOM     18  C   UNK A   0       2.064   1.114   1.238  0.00  0.00    +0.000 C 
BRANCH  18  19
ATOM     19  N   ALA A   1       1.331   1.536   2.446  0.00  0.00    +0.000 N 
ATOM     20  H1  ALA A   1       0.395   1.107   2.445  0.00  0.00    +0.000 HD
ATOM     21  H2  ALA A   1       1.232   2.562   2.444  0.00  0.00    +0.000 HD
BRANCH  19  23
ATOM     22  CB  ALA A   1       1.681  -0.323   4.009  0.00  0.00    +0.000 C 
ATOM     23  CA  ALA A   1       2.059   1.117   3.659  0.00  0.00    +0.000 C 
BRANCH  23  24
ATOM     24  C   ALA A   1       1.683   2.027   4.800  0.00  0.00    +0.000 C 
ATOM     25  O   ALA A   1       0.898   2.927   4.622  0.00  0.00    +0.000 OA
ATOM     26  OXT ALA A   1       2.221   1.836   6.015  0.00  0.00    +0.000 OA
ENDBRANCH  23  24
ENDBRANCH  19  23
ENDBRANCH  18  19
ENDBRANCH  15  18
ENDBRANCH   1  15
TORSDOF 9
ENDMDL
MODEL     1137
REMARK  Name = ZINC29666903
REMARK  10 active torsions:
REMARK  status: ('A' for Active; 'I' for Inactive)
REMARK    1  A    between atoms: C_1  and  O_2
REMARK    2  A    between atoms: O_2  and  N_3
REMARK    3  A    between atoms: N_3  and  C_4
REMARK    4  A    between atoms: C_4  and  C_6
REMARK    5  A    between atoms: C_6  and  S_7
REMARK    6  A    between atoms: S_7  and  C_8
REMARK    7  A    between atoms: C_11  and  C_18
REMARK    8  A    between atoms: N_12  and  C_13
REMARK    9  A    between atoms: C_13  and  C_14
REMARK   10  A    between atoms: C_14  and  C_15
REMARK                            x       y       z     vdW  Elec       q    Type
REMARK                         _______ _______ _______ _____ _____    ______ ____
ROOT
ATOM      1  C   UNL     1      -3.214  -1.659   0.184  0.00  0.00    +0.000 A 
ATOM      2  N   UNL     1      -2.393  -2.623  -0.168  0.00  0.00    +0.000 NA
ATOM      3  N   UNL     1      -1.196  -2.168  -0.277  0.00  0.00    +0.000 NA
ATOM      4  C   UNL     1      -1.177  -0.884   0.009  0.00  0.00    +0.000 A 
ATOM      5  N   UNL     1      -2.471  -0.518   0.309  0.00  0.00    +0.000 N 
ENDROOT
BRANCH   4   6
ATOM      6  C   UNL     1       0.002  -0.004   0.002  0.00  0.00    +0.000 A 
ATOM      7  C   UNL     1       1.303  -0.409  -0.013  0.00  0.00    +0.000 A 
ATOM      8  C   UNL     1       2.091   0.758  -0.014  0.00  0.00    +0.000 A 
ATOM      9  C   UNL     1       1.245   1.807  -0.000  0.00  0.00    +0.000 A 
ATOM     10  O   UNL     1      -0.016   1.343   0.009  0.00  0.00    +0.000 OA
ENDBRANCH   4   6
BRANCH   1  11
ATOM     11  S   UNL     1      -4.950  -1.808   0.446  0.00  0.00    +0.000 S 
BRANCH  11  12
ATOM     12  C   UNL     1      -5.170  -3.570   0.095  0.00  0.00    +0.000 C 
BRANCH  12  13
ATOM     13  C   UNL     1      -6.622  -3.938   0.261  0.00  0.00    +0.000 C 
ATOM     14  O   UNL     1      -7.429  -3.092   0.584  0.00  0.00    +0.000 OA
BRANCH  13  15
ATOM     15  N   UNL     1      -7.024  -5.207   0.050  0.00  0.00    +0.000 NA
BRANCH  15  17
ATOM     16  C   UNL     1      -8.672  -6.929  -0.050  0.00  0.00    +0.000 C 
ATOM     17  O   UNL     1      -8.389  -5.552   0.205  0.00  0.00    +0.000 OA
ENDBRANCH  15  17
ENDBRANCH  13  15
ENDBRANCH  12  13
ENDBRANCH  11  12
ENDBRANCH   1  11
BRANCH   5  18
ATOM     18  C   UNL     1      -2.950   0.814   0.684  0.00  0.00    +0.000 C 
BRANCH  18  19
ATOM     19  C   UNL     1      -3.353   1.584  -0.575  0.00  0.00    +0.000 C 
BRANCH  19  20
ATOM     20  C   UNL     1      -3.846   2.955  -0.189  0.00  0.00    +0.000 C 
ATOM     21  O   UNL     1      -3.872   3.284   0.978  0.00  0.00    +0.000 OA
ATOM     22  N   UNL     1      -4.258   3.816  -1.141  0.00  0.00    +0.000 N 
ATOM     23  H   UNL     1      -4.235   3.537  -2.132  0.00  0.00    +0.000 HD
ATOM     24  H   UNL     1      -4.595   4.753  -0.877  0.00  0.00    +0.000 HD
ENDBRANCH  19  20
ENDBRANCH  18  19
ENDBRANCH   5  18
TORSDOF 9
ENDMDL
MODEL     1138
REMARK  Name = ZINC29731274
REMARK  9 active torsions:
REMARK  status: ('A' for Active; 'I' for Inactive)
REMARK    1  A    between atoms: C_1  and  S_2
REMARK    2  A    between atoms: S_2  and  N_5
REMARK    3  A    between atoms: N_5  and  C_6
REMARK    4  A    between atoms: C_6  and  C_7
REMARK    5  A    between atoms: C_7  and  C_8
REMARK    6  A    between atoms: C_8  and  N_9
REMARK    7  A    between atoms: N_12  and  C_13
REMARK    8  A    between atoms: C_13  and  C_14
REMARK    9  A    between atoms: C_18  and  C_20
REMARK                            x       y       z     vdW  Elec       q    Type
REMARK                         _______ _______ _______ _____ _____    ______ ____
ROOT
ATOM      1  N   UNL     1       2.323   0.998  -0.015  0.00  0.00    +0.000 N 
ATOM      2  C   UNL     1       1.147   1.655   0.000  0.00  0.00    +0.000 C 
ATOM      3  O   UNL     1       1.130   2.871   0.007  0.00  0.00    +0.000 OA
ATOM      4  N   UNL     1      -0.011   0.966   0.007  0.00  0.00    +0.000 N 
ATOM      5  H   UNL     1       2.337  -0.032  -0.021  0.00  0.00    +0.000 HD
ATOM      6  H   UNL     1       0.003  -0.064   0.006  0.00  0.00    +0.000 HD
ENDROOT
BRANCH   4   7
ATOM      7  C   UNL     1      -1.290   1.681   0.017  0.00  0.00    +0.000 C 
BRANCH   7   8
ATOM      8  C   UNL     1      -2.422   0.686   0.017  0.00  0.00    +0.000 A 
ATOM      9  C   UNL     1      -2.950   0.241  -1.182  0.00  0.00    +0.000 A 
ATOM     10  C   UNL     1      -3.986  -0.675  -1.191  0.00  0.00    +0.000 A 
ATOM     11  C   UNL     1      -4.506  -1.144  -0.002  0.00  0.00    +0.000 A 
ATOM     12  C   UNL     1      -3.982  -0.696   1.211  0.00  0.00    +0.000 A 
ATOM     13  C   UNL     1      -2.933   0.226   1.213  0.00  0.00    +0.000 A 
BRANCH  12  14
ATOM     14  C   UNL     1      -4.535  -1.193   2.488  0.00  0.00    +0.000 C 
ATOM     15  O   UNL     1      -4.077  -0.801   3.543  0.00  0.00    +0.000 OA
ATOM     16  N   UNL     1      -5.548  -2.083   2.483  0.00  0.00    +0.000 N 
ATOM     17  H   UNL     1      -5.936  -2.415   1.589  0.00  0.00    +0.000 HD
ATOM     18  H   UNL     1      -5.933  -2.429   3.373  0.00  0.00    +0.000 HD
ENDBRANCH  12  14
ENDBRANCH   7   8
ENDBRANCH   4   7
BRANCH   1  19
ATOM     19  C   UNL     1       3.582   1.747  -0.023  0.00  0.00    +0.000 C 
BRANCH  19  20
ATOM     20  C   UNL     1       4.758   0.769  -0.039  0.00  0.00    +0.000 C 
BRANCH  20  21
ATOM     21  C   UNL     1       6.072   1.552  -0.048  0.00  0.00    +0.000 C 
BRANCH  21  22
ATOM     22  N   UNL     1       7.199   0.615  -0.063  0.00  0.00    +0.000 NA
ATOM     23  H   UNL     1       7.046  -0.378   0.164  0.00  0.00    +0.000 HD
BRANCH  22  25
ATOM     24  C   UNL     1       9.157   2.298   0.890  0.00  0.00    +0.000 C 
ATOM     25  S   UNL     1       8.717   1.153  -0.446  0.00  0.00    +0.000 S 
ATOM     26  O   UNL     1       9.538  -0.006  -0.388  0.00  0.00    +0.000 OA
ATOM     27  O   UNL     1       8.554   1.863  -1.666  0.00  0.00    +0.000 OA
ENDBRANCH  22  25
ENDBRANCH  21  22
ENDBRANCH  20  21
ENDBRANCH  19  20
ENDBRANCH   1  19
TORSDOF 8
ENDMDL
MODEL     1139
REMARK  Name = ZINC05759834
REMARK  9 active torsions:
REMARK  status: ('A' for Active; 'I' for Inactive)
REMARK    1  A    between atoms: C_1  and  C_2
REMARK    2  A    between atoms: C_2  and  C_3
REMARK    3  A    between atoms: C_2  and  C_4
REMARK    4  A    between atoms: C_4  and  C_5
REMARK    5  A    between atoms: C_5  and  C_6
REMARK    6  A    between atoms: C_5  and  N_15
REMARK    7  A    between atoms: N_10  and  C_11
REMARK    8  A    between atoms: C_11  and  C_12
REMARK    9  A    between atoms: C_16  and  C_18
REMARK                            x       y       z     vdW  Elec       q    Type
REMARK                         _______ _______ _______ _____ _____    ______ ____
ROOT
ATOM      1  C   UNL     1       1.715   2.133   2.522  0.00  0.00    +0.000 C 
ENDROOT
BRANCH   1   2
ATOM      2  C   UNL     1       2.115   2.286   1.077  0.00  0.00    +0.000 A 
ATOM      3  N   UNL     1       3.269   2.711   0.625  0.00  0.00    +0.000 NA
ATOM      4  N   UNL     1       3.220   2.704  -0.662  0.00  0.00    +0.000 NA
ATOM      5  N   UNL     1       2.065   2.281  -1.043  0.00  0.00    +0.000 NA
ATOM      6  N   UNL     1       1.356   2.010  -0.000  0.00  0.00    +0.000 N 
BRANCH   6   7
ATOM      7  C   UNL     1      -0.018   1.503   0.010  0.00  0.00    +0.000 C 
BRANCH   7   8
ATOM      8  C   UNL     1       0.002  -0.004   0.002  0.00  0.00    +0.000 C 
ATOM      9  O   UNL     1       1.060  -0.596  -0.011  0.00  0.00    +0.000 OA
ATOM     10  N   UNL     1      -1.156  -0.694   0.009  0.00  0.00    +0.000 N 
ATOM     11  H   UNL     1      -2.055  -0.191   0.021  0.00  0.00    +0.000 HD
ATOM     12  H   UNL     1      -1.142  -1.724   0.004  0.00  0.00    +0.000 HD
ENDBRANCH   7   8
ENDBRANCH   6   7
ENDBRANCH   1   2
BRANCH   1  13
ATOM     13  N   UNL     1       2.803   1.490   3.264  0.00  0.00    +0.000 N 
ATOM     14  C   UNL     1       2.535   0.802   4.392  0.00  0.00    +0.000 C 
ATOM     15  O   UNL     1       1.393   0.715   4.792  0.00  0.00    +0.000 OA
ATOM     16  H   UNL     1       3.772   1.565   2.924  0.00  0.00    +0.000 HD
BRANCH  14  17
ATOM     17  C   UNL     1       3.653   0.142   5.155  0.00  0.00    +0.000 C 
ATOM     18  C   UNL     1       4.017  -1.204   4.493  0.00  0.00    +0.000 C 
ATOM     19  C   UNL     1       4.308  -2.124   5.708  0.00  0.00    +0.000 C 
ATOM     20  C   UNL     1       3.270  -1.615   6.740  0.00  0.00    +0.000 C 
ATOM     21  N   UNL     1       3.217  -0.157   6.527  0.00  0.00    +0.000 N 
ATOM     22  H   UNL     1       2.252   0.175   6.664  0.00  0.00    +0.000 HD
ATOM     23  H   UNL     1       3.844   0.311   7.198  0.00  0.00    +0.000 HD
ENDBRANCH  14  17
ENDBRANCH   1  13
BRANCH   1  24
ATOM     24  C   UNL     1       1.433   3.512   3.122  0.00  0.00    +0.000 C 
BRANCH  24  26
ATOM     25  C   UNL     1       0.744   4.728   5.193  0.00  0.00    +0.000 C 
ATOM     26  C   UNL     1       0.908   3.349   4.550  0.00  0.00    +0.000 C 
ATOM     27  C   UNL     1      -0.446   2.637   4.517  0.00  0.00    +0.000 C 
ENDBRANCH  24  26
ENDBRANCH   1  24
TORSDOF 7
ENDMDL
MODEL     1140
REMARK  Name = ZINC11569254
REMARK  11 active torsions:
REMARK  status: ('A' for Active; 'I' for Inactive)
REMARK    1  A    between atoms: C_1  and  C_2
REMARK    2  A    between atoms: C_2  and  C_3
REMARK    3  A    between atoms: C_2  and  C_12
REMARK    4  A    between atoms: C_3  and  S_4
REMARK    5  A    between atoms: S_4  and  N_7
REMARK    6  A    between atoms: N_14  and  C_15
REMARK    7  A    between atoms: C_15  and  C_16
REMARK    8  A    between atoms: C_16  and  C_17
REMARK    9  A    between atoms: C_17  and  N_21
REMARK   10  A    between atoms: C_18  and  N_21
REMARK   11  A    between atoms: C_19  and  N_21
REMARK                            x       y       z     vdW  Elec       q    Type
REMARK                         _______ _______ _______ _____ _____    ______ ____
ROOT
ATOM      1  C   UNL     1       2.644   2.314  -4.204  0.00  0.00    +0.000 C 
ATOM      2  C   UNL     1       1.345   1.688  -4.713  0.00  0.00    +0.000 C 
ENDROOT
BRANCH   2   3
ATOM      3  C   UNL     1       1.665   0.621  -5.728  0.00  0.00    +0.000 C 
ATOM      4  O   UNL     1       1.321  -0.526  -5.532  0.00  0.00    +0.000 OA
ATOM      5  N   UNL     1       2.335   0.940  -6.853  0.00  0.00    +0.000 N 
ATOM      6  H   UNL     1       2.628   1.914  -7.019  0.00  0.00    +0.000 HD
BRANCH   5   7
ATOM      7  C   UNL     1       2.647  -0.097  -7.839  0.00  0.00    +0.000 C 
BRANCH   7   8
ATOM      8  C   UNL     1       3.406   0.527  -9.012  0.00  0.00    +0.000 C 
BRANCH   8   9
ATOM      9  C   UNL     1       3.731  -0.556 -10.043  0.00  0.00    +0.000 C 
BRANCH   9  12
ATOM     10  C   UNL     1       4.996  -0.995 -12.060  0.00  0.00    +0.000 C 
ATOM     11  C   UNL     1       3.607   0.982 -11.908  0.00  0.00    +0.000 C 
ATOM     12  N   UNL     1       4.482   0.057 -11.158  0.00  0.00    +0.000 N 
ATOM     13  H   UNL     1       5.278   0.587 -10.774  0.00  0.00    +0.000 HD
ENDBRANCH   9  12
ENDBRANCH   8   9
ENDBRANCH   7   8
ENDBRANCH   5   7
ENDBRANCH   2   3
BRANCH   2  14
ATOM     14  C   UNL     1       0.586   1.064  -3.540  0.00  0.00    +0.000 C 
BRANCH  14  15
ATOM     15  S   UNL     1       0.071   2.369  -2.390  0.00  0.00    +0.000 S 
ATOM     16  O   UNL     1      -0.914   3.195  -2.997  0.00  0.00    +0.000 OA
ATOM     17  O   UNL     1       1.208   2.942  -1.759  0.00  0.00    +0.000 OA
BRANCH  15  18
ATOM     18  N   UNL     1      -0.732   1.577  -1.178  0.00  0.00    +0.000 NA
ATOM     19  C   UNL     1      -0.013   1.086   0.008  0.00  0.00    +0.000 C 
ATOM     20  C   UNL     1      -0.738   1.584   1.263  0.00  0.00    +0.000 C 
ATOM     21  C   UNL     1      -2.826   1.832   0.044  0.00  0.00    +0.000 C 
ATOM     22  C   UNL     1      -2.182   1.344  -1.258  0.00  0.00    +0.000 C 
ATOM     23  N   UNL     1      -2.163   1.187   1.195  0.00  0.00    +0.000 NA
ATOM     24  H   UNL     1      -2.638   1.469   2.064  0.00  0.00    +0.000 HD
ENDBRANCH  15  18
ENDBRANCH  14  15
ENDBRANCH   2  14
TORSDOF 8
ENDMDL
MODEL     1141
REMARK  Name = ZINC20188385
REMARK  7 active torsions:
REMARK  status: ('A' for Active; 'I' for Inactive)
REMARK    1  A    between atoms: C_1  and  N_2
REMARK    2  A    between atoms: N_2  and  C_3
REMARK    3  A    between atoms: C_3  and  C_4
REMARK    4  A    between atoms: C_7  and  S_10
REMARK    5  A    between atoms: S_10  and  N_13
REMARK    6  A    between atoms: N_13  and  C_14
REMARK    7  A    between atoms: C_19  and  C_20
REMARK                            x       y       z     vdW  Elec       q    Type
REMARK                         _______ _______ _______ _____ _____    ______ ____
ROOT
ATOM      1  S   UNL     1      -0.821   8.107  -0.899  0.00  0.00    +0.000 S 
ATOM      2  O   UNL     1      -1.560   8.560   0.227  0.00  0.00    +0.000 OA
ATOM      3  O   UNL     1       0.524   8.502  -1.136  0.00  0.00    +0.000 OA
ENDROOT
BRANCH   1   7
ATOM      4  C   UNL     1      -0.828   3.584  -0.718  0.00  0.00    +0.000 A 
ATOM      5  C   UNL     1      -1.831   4.303  -0.095  0.00  0.00    +0.000 A 
ATOM      6  C   UNL     1      -1.826   5.684  -0.146  0.00  0.00    +0.000 A 
ATOM      7  C   UNL     1      -0.824   6.347  -0.829  0.00  0.00    +0.000 A 
ATOM      8  C   UNL     1       0.177   5.628  -1.457  0.00  0.00    +0.000 A 
ATOM      9  C   UNL     1       0.175   4.247  -1.402  0.00  0.00    +0.000 A 
BRANCH   4  10
ATOM     10  C   UNL     1      -0.830   2.079  -0.658  0.00  0.00    +0.000 C 
BRANCH  10  12
ATOM     11  C   UNL     1      -0.051   0.169   0.611  0.00  0.00    +0.000 C 
ATOM     12  N   UNL     1      -0.071   1.635   0.519  0.00  0.00    +0.000 N 
ATOM     13  H   UNL     1      -0.505   2.022   1.369  0.00  0.00    +0.000 HD
ATOM     14  H   UNL     1       0.895   1.985   0.451  0.00  0.00    +0.000 HD
ENDBRANCH  10  12
ENDBRANCH   4  10
ENDBRANCH   1   7
BRANCH   1  15
ATOM     15  N   UNL     1      -1.686   8.546  -2.241  0.00  0.00    +0.000 NA
BRANCH  15  16
ATOM     16  C   UNL     1      -3.022   8.182  -2.355  0.00  0.00    +0.000 A 
ATOM     17  C   UNL     1      -3.836   8.150  -1.229  0.00  0.00    +0.000 A 
ATOM     18  C   UNL     1      -5.163   7.794  -1.346  0.00  0.00    +0.000 A 
ATOM     19  C   UNL     1      -5.693   7.456  -2.582  0.00  0.00    +0.000 A 
ATOM     20  C   UNL     1      -4.900   7.476  -3.708  0.00  0.00    +0.000 A 
ATOM     21  C   UNL     1      -3.555   7.840  -3.607  0.00  0.00    +0.000 A 
BRANCH  21  22
ATOM     22  C   UNL     1      -2.701   7.864  -4.809  0.00  0.00    +0.000 C 
ATOM     23  O   UNL     1      -1.530   8.181  -4.717  0.00  0.00    +0.000 OA
ATOM     24  N   UNL     1      -3.217   7.535  -6.009  0.00  0.00    +0.000 N 
ATOM     25  H   UNL     1      -4.209   7.266  -6.087  0.00  0.00    +0.000 HD
ATOM     26  H   UNL     1      -2.621   7.551  -6.849  0.00  0.00    +0.000 HD
ENDBRANCH  21  22
ENDBRANCH  15  16
ENDBRANCH   1  15
TORSDOF 6
ENDMDL
MODEL     1142
REMARK  Name = ZINC23989736
REMARK  10 active torsions:
REMARK  status: ('A' for Active; 'I' for Inactive)
REMARK    1  A    between atoms: C_1  and  C_2
REMARK    2  A    between atoms: N_9  and  C_10
REMARK    3  A    between atoms: C_10  and  C_11
REMARK    4  A    between atoms: C_11  and  N_12
REMARK    5  A    between atoms: N_12  and  C_13
REMARK    6  A    between atoms: C_13  and  C_14
REMARK    7  A    between atoms: C_14  and  C_15
REMARK    8  A    between atoms: C_15  and  O_16
REMARK    9  A    between atoms: N_17  and  C_24
REMARK   10  A    between atoms: N_20  and  C_23
REMARK                            x       y       z     vdW  Elec       q    Type
REMARK                         _______ _______ _______ _____ _____    ______ ____
ROOT
ATOM      1  C   UNL     1       4.538  -2.112  -0.052  0.00  0.00    +0.000 C 
ATOM      2  C   UNL     1       3.348  -1.187  -0.036  0.00  0.00    +0.000 A 
ATOM      3  C   UNL     1       3.393   0.142  -0.029  0.00  0.00    +0.000 A 
ATOM      4  N   UNL     1       2.095   0.621  -0.015  0.00  0.00    +0.000 N 
ATOM      5  C   UNL     1       1.308   1.763  -0.001  0.00  0.00    +0.000 A 
ATOM      6  C   UNL     1      -0.016   1.326   0.009  0.00  0.00    +0.000 A 
ATOM      7  N   UNL     1       0.002  -0.004   0.002  0.00  0.00    +0.000 NA
ATOM      8  C   UNL     1       1.254  -0.439  -0.012  0.00  0.00    +0.000 A 
ATOM      9  N   UNL     1       2.021  -1.573  -0.026  0.00  0.00    +0.000 N 
ATOM     10  N   UNL     1      -1.031   2.271   0.019  0.00  0.00    +0.000 N 
ATOM     11  C   UNL     1      -0.729   3.583   0.026  0.00  0.00    +0.000 A 
ATOM     12  O   UNL     1      -1.631   4.399   0.037  0.00  0.00    +0.000 OA
ATOM     13  N   UNL     1       0.544   4.014   0.017  0.00  0.00    +0.000 N 
ATOM     14  C   UNL     1       1.574   3.142   0.003  0.00  0.00    +0.000 A 
ATOM     15  O   UNL     1       2.723   3.548  -0.006  0.00  0.00    +0.000 OA
ATOM     16  C   UNL     1       0.818   5.453   0.021  0.00  0.00    +0.000 C 
ATOM     17  C   UNL     1      -2.432   1.841   0.024  0.00  0.00    +0.000 C 
ENDROOT
BRANCH   9  18
ATOM     18  C   UNL     1       1.524  -2.951  -0.029  0.00  0.00    +0.000 C 
BRANCH  18  19
ATOM     19  C   UNL     1       1.337  -3.423  -1.472  0.00  0.00    +0.000 C 
BRANCH  19  20
ATOM     20  N   UNL     1       0.838  -4.805  -1.476  0.00  0.00    +0.000 N 
ATOM     21  H   UNL     1       1.515  -5.412  -0.992  0.00  0.00    +0.000 HD
ATOM     22  H   UNL     1      -0.060  -4.843  -0.974  0.00  0.00    +0.000 HD
BRANCH  20  23
ATOM     23  C   UNL     1       0.647  -5.292  -2.848  0.00  0.00    +0.000 C 
BRANCH  23  24
ATOM     24  C   UNL     1       0.128  -6.731  -2.811  0.00  0.00    +0.000 C 
BRANCH  24  25
ATOM     25  C   UNL     1      -0.071  -7.239  -4.240  0.00  0.00    +0.000 C 
BRANCH  25  26
ATOM     26  O   UNL     1      -0.556  -8.582  -4.205  0.00  0.00    +0.000 OA
ATOM     27  H   UNL     1      -1.420  -8.610  -3.722  0.00  0.00    +0.000 HD
ENDBRANCH  25  26
ENDBRANCH  24  25
ENDBRANCH  23  24
ENDBRANCH  20  23
ENDBRANCH  19  20
ENDBRANCH  18  19
ENDBRANCH   9  18
TORSDOF 7
ENDMDL
MODEL     1143
REMARK  Name = ZINC19939786
REMARK  7 active torsions:
REMARK  status: ('A' for Active; 'I' for Inactive)
REMARK    1  A    between atoms: C_8  and  C_14
REMARK    2  A    between atoms: N_16  and  C_17
REMARK    3  A    between atoms: C_17  and  C_18
REMARK    4  A    between atoms: C_18  and  N_19
REMARK    5  A    between atoms: N_19  and  C_20
REMARK    6  A    between atoms: C_20  and  C_21
REMARK    7  A    between atoms: C_21  and  O_22
REMARK                            x       y       z     vdW  Elec       q    Type
REMARK                         _______ _______ _______ _____ _____    ______ ____
ROOT
ATOM      1  C   UNL     1       3.391  -2.239  -0.310  0.00  0.00    +0.000 A 
ATOM      2  C   UNL     1       2.135  -2.828  -0.214  0.00  0.00    +0.000 A 
ATOM      3  C   UNL     1       1.010  -2.041  -0.097  0.00  0.00    +0.000 A 
ATOM      4  C   UNL     1       1.157  -0.670  -0.078  0.00  0.00    +0.000 A 
ATOM      5  C   UNL     1       2.413  -0.065  -0.175  0.00  0.00    +0.000 A 
ATOM      6  C   UNL     1       3.545  -0.878  -0.293  0.00  0.00    +0.000 A 
ATOM      7  C   UNL     1       2.485   1.399  -0.147  0.00  0.00    +0.000 A 
ATOM      8  C   UNL     1       1.280   2.101  -0.024  0.00  0.00    +0.000 A 
ATOM      9  C   UNL     1       0.014   1.376   0.070  0.00  0.00    +0.000 A 
ATOM     10  O   UNL     1      -1.030   1.997   0.171  0.00  0.00    +0.000 OA
ATOM     11  N   UNL     1      -0.013   0.026   0.041  0.00  0.00    +0.000 N 
ATOM     12  C   UNL     1      -1.124  -0.936   0.117  0.00  0.00    +0.000 C 
ATOM     13  C   UNL     1      -0.467  -2.329   0.027  0.00  0.00    +0.000 C 
ATOM     14  O   UNL     1       3.667   2.044  -0.236  0.00  0.00    +0.000 OA
ENDROOT
BRANCH   8  15
ATOM     15  C   UNL     1       1.288   3.569   0.010  0.00  0.00    +0.000 C 
ATOM     16  O   UNL     1       1.183   4.153   1.072  0.00  0.00    +0.000 OA
ATOM     17  N   UNL     1       1.413   4.268  -1.135  0.00  0.00    +0.000 N 
ATOM     18  H   UNL     1       1.425   3.777  -2.041  0.00  0.00    +0.000 HD
BRANCH  17  19
ATOM     19  C   UNL     1       1.532   5.728  -1.093  0.00  0.00    +0.000 C 
BRANCH  19  20
ATOM     20  C   UNL     1       1.660   6.271  -2.517  0.00  0.00    +0.000 C 
BRANCH  20  21
ATOM     21  N   UNL     1       1.778   7.734  -2.475  0.00  0.00    +0.000 N 
ATOM     22  H   UNL     1       0.943   8.130  -2.021  0.00  0.00    +0.000 HD
ATOM     23  H   UNL     1       2.609   7.993  -1.923  0.00  0.00    +0.000 HD
BRANCH  21  24
ATOM     24  C   UNL     1       1.904   8.292  -3.828  0.00  0.00    +0.000 C 
BRANCH  24  25
ATOM     25  C   UNL     1       2.025   9.815  -3.743  0.00  0.00    +0.000 C 
BRANCH  25  26
ATOM     26  O   UNL     1       3.242  10.160  -3.078  0.00  0.00    +0.000 OA
ATOM     27  H   UNL     1       4.010   9.796  -3.585  0.00  0.00    +0.000 HD
ENDBRANCH  25  26
ENDBRANCH  24  25
ENDBRANCH  21  24
ENDBRANCH  20  21
ENDBRANCH  19  20
ENDBRANCH  17  19
ENDBRANCH   8  15
TORSDOF 7
ENDMDL
MODEL     1144
REMARK  Name = ZINC05665758
REMARK  9 active torsions:
REMARK  status: ('A' for Active; 'I' for Inactive)
REMARK    1  A    between atoms: C_1  and  C_2
REMARK    2  A    between atoms: C_3  and  C_4
REMARK    3  A    between atoms: C_3  and  N_23
REMARK    4  A    between atoms: N_10  and  C_13
REMARK    5  A    between atoms: C_19  and  C_20
REMARK    6  A    between atoms: C_19  and  N_23
REMARK    7  A    between atoms: C_20  and  N_24
REMARK    8  A    between atoms: C_21  and  N_24
REMARK    9  A    between atoms: C_22  and  N_24
REMARK                            x       y       z     vdW  Elec       q    Type
REMARK                         _______ _______ _______ _____ _____    ______ ____
ROOT
ATOM      1  C   UNL     1       0.193   0.836   4.785  0.00  0.00    +0.000 A 
ATOM      2  C   UNL     1       0.282  -0.677   4.862  0.00  0.00    +0.000 A 
ATOM      3  O   UNL     1      -0.709  -1.370   4.776  0.00  0.00    +0.000 OA
ATOM      4  N   UNL     1       1.506  -1.222   5.029  0.00  0.00    +0.000 N 
ATOM      5  C   UNL     1       2.609  -0.471   5.126  0.00  0.00    +0.000 A 
ATOM      6  O   UNL     1       3.669  -1.045   5.276  0.00  0.00    +0.000 OA
ATOM      7  N   UNL     1       2.629   0.865   5.071  0.00  0.00    +0.000 N 
ATOM      8  C   UNL     1       1.503   1.591   4.907  0.00  0.00    +0.000 A 
ATOM      9  O   UNL     1       1.538   2.802   4.858  0.00  0.00    +0.000 OA
ATOM     10  H   UNL     1       1.592  -2.247   5.085  0.00  0.00    +0.000 HD
ENDROOT
BRANCH   7  11
ATOM     11  C   UNL     1       3.857   1.532   5.187  0.00  0.00    +0.000 A 
ATOM     12  C   UNL     1       4.162   2.231   6.346  0.00  0.00    +0.000 A 
ATOM     13  C   UNL     1       5.375   2.883   6.460  0.00  0.00    +0.000 A 
ATOM     14  C   UNL     1       6.281   2.847   5.415  0.00  0.00    +0.000 A 
ATOM     15  C   UNL     1       5.978   2.156   4.257  0.00  0.00    +0.000 A 
ATOM     16  C   UNL     1       4.769   1.498   4.140  0.00  0.00    +0.000 A 
ENDBRANCH   7  11
BRANCH   1  19
ATOM     17  C   UNL     1      -2.263   2.150   2.134  0.00  0.00    +0.000 C 
ATOM     18  C   UNL     1      -1.568   1.886   3.445  0.00  0.00    +0.000 C 
ATOM     19  C   UNL     1      -0.439   1.202   3.468  0.00  0.00    +0.000 C 
BRANCH  19  20
ATOM     20  N   UNL     1       0.135   0.841   2.213  0.00  0.00    +0.000 NA
ATOM     21  H   UNL     1      -0.561   0.306   1.676  0.00  0.00    +0.000 HD
ATOM     22  H   UNL     1       0.331   1.701   1.681  0.00  0.00    +0.000 HD
BRANCH  20  23
ATOM     23  C   UNL     1       1.400   0.032   2.302  0.00  0.00    +0.000 C 
BRANCH  23  24
ATOM     24  C   UNL     1       1.924  -0.140   0.875  0.00  0.00    +0.000 C 
BRANCH  24  27
ATOM     25  C   UNL     1       2.899  -2.307   1.345  0.00  0.00    +0.000 C 
ATOM     26  C   UNL     1       3.821  -0.919  -0.412  0.00  0.00    +0.000 C 
ATOM     27  N   UNL     1       3.180  -0.919   0.919  0.00  0.00    +0.000 NA
ENDBRANCH  24  27
ENDBRANCH  23  24
ENDBRANCH  20  23
ENDBRANCH  19  20
ENDBRANCH   1  19
TORSDOF 6
ENDMDL
MODEL     1145
REMARK  Name = ZINC19752740
REMARK  8 active torsions:
REMARK  status: ('A' for Active; 'I' for Inactive)
REMARK    1  A    between atoms: C_1  and  C_2
REMARK    2  A    between atoms: C_2  and  C_3
REMARK    3  A    between atoms: C_3  and  C_4
REMARK    4  A    between atoms: C_3  and  N_7
REMARK    5  A    between atoms: C_15  and  C_16
REMARK    6  A    between atoms: C_16  and  C_17
REMARK    7  A    between atoms: C_17  and  C_18
REMARK    8  A    between atoms: C_18  and  N_19
REMARK                            x       y       z     vdW  Elec       q    Type
REMARK                         _______ _______ _______ _____ _____    ______ ____
ROOT
ATOM      1  N   UNL     1       1.390  -0.473  -0.014  0.00  0.00    +0.000 N 
ATOM      2  C   UNL     1       2.333  -0.209  -0.989  0.00  0.00    +0.000 A 
ATOM      3  C   UNL     1       2.322   0.524  -2.167  0.00  0.00    +0.000 A 
ATOM      4  C   UNL     1       3.465   0.606  -2.942  0.00  0.00    +0.000 A 
ATOM      5  C   UNL     1       4.634  -0.042  -2.539  0.00  0.00    +0.000 A 
ATOM      6  C   UNL     1       4.658  -0.771  -1.367  0.00  0.00    +0.000 A 
ATOM      7  C   UNL     1       3.508  -0.860  -0.577  0.00  0.00    +0.000 A 
ATOM      8  N   UNL     1       3.225  -1.482   0.597  0.00  0.00    +0.000 NA
ATOM      9  C   UNL     1       1.987  -1.256   0.926  0.00  0.00    +0.000 A 
ATOM     10  O   UNL     1       5.767   0.038  -3.292  0.00  0.00    +0.000 OA
ATOM     11  C   UNL     1       5.610   0.467  -4.649  0.00  0.00    +0.000 C 
ATOM     12  C   UNL     1       4.694   1.698  -4.661  0.00  0.00    +0.000 C 
ATOM     13  O   UNL     1       3.431   1.323  -4.099  0.00  0.00    +0.000 OA
ENDROOT
BRANCH   1  14
ATOM     14  C   UNL     1       0.002  -0.004   0.002  0.00  0.00    +0.000 C 
BRANCH  14  15
ATOM     15  C   UNL     1      -0.018   1.503   0.010  0.00  0.00    +0.000 C 
ATOM     16  O   UNL     1       1.020   2.121   0.004  0.00  0.00    +0.000 OA
ATOM     17  O   UNL     1      -1.190   2.158   0.019  0.00  0.00    +0.000 OA
ENDBRANCH  14  15
BRANCH  14  19
ATOM     18  C   UNL     1      -0.813  -2.044  -1.189  0.00  0.00    +0.000 C 
ATOM     19  C   UNL     1      -0.724  -0.517  -1.243  0.00  0.00    +0.000 C 
ENDBRANCH  14  19
ENDBRANCH   1  14
BRANCH   9  20
ATOM     20  C   UNL     1       1.313  -1.784   2.166  0.00  0.00    +0.000 C 
BRANCH  20  21
ATOM     21  C   UNL     1       0.678  -3.143   1.861  0.00  0.00    +0.000 C 
BRANCH  21  22
ATOM     22  C   UNL     1      -0.007  -3.679   3.120  0.00  0.00    +0.000 C 
BRANCH  22  23
ATOM     23  N   UNL     1      -0.617  -4.983   2.828  0.00  0.00    +0.000 N 
ATOM     24  H   UNL     1       0.113  -5.644   2.527  0.00  0.00    +0.000 HD
ATOM     25  H   UNL     1      -1.314  -4.877   2.078  0.00  0.00    +0.000 HD
ATOM     26  H   UNL     1      -1.078  -5.344   3.675  0.00  0.00    +0.000 HD
ENDBRANCH  22  23
ENDBRANCH  21  22
ENDBRANCH  20  21
ENDBRANCH   9  20
TORSDOF 7
ENDMDL
MODEL     1146
REMARK  Name = ZINC15937142
REMARK  9 active torsions:
REMARK  status: ('A' for Active; 'I' for Inactive)
REMARK    1  A    between atoms: C_1  and  C_2
REMARK    2  A    between atoms: C_2  and  N_3
REMARK    3  A    between atoms: C_4  and  C_19
REMARK    4  A    between atoms: C_5  and  C_8
REMARK    5  A    between atoms: C_12  and  S_14
REMARK    6  A    between atoms: S_14  and  C_15
REMARK    7  A    between atoms: C_15  and  C_16
REMARK    8  A    between atoms: C_16  and  C_17
REMARK    9  A    between atoms: C_16  and  N_21
REMARK                            x       y       z     vdW  Elec       q    Type
REMARK                         _______ _______ _______ _____ _____    ______ ____
ROOT
ATOM      1  C   UNK     1      -3.103   1.365   3.924  0.00  0.00    +0.000 A 
ATOM      2  C   UNK     1      -3.378   2.245   4.974  0.00  0.00    +0.000 A 
ATOM      3  C   UNK     1      -4.369   1.905   5.877  0.00  0.00    +0.000 A 
ATOM      4  N   UNK     1      -5.022   0.764   5.722  0.00  0.00    +0.000 NA
ATOM      5  C   UNK     1      -4.740  -0.053   4.716  0.00  0.00    +0.000 A 
ATOM      6  N   UNK     1      -3.803   0.237   3.826  0.00  0.00    +0.000 NA
ENDROOT
BRANCH   1   9
ATOM      7  N   UNK     1      -0.698   1.558   1.213  0.00  0.00    +0.000 N 
ATOM      8  C   UNK     1      -1.685   0.913   1.863  0.00  0.00    +0.000 A 
ATOM      9  C   UNK     1      -2.050   1.684   2.930  0.00  0.00    +0.000 A 
ATOM     10  C   UNK     1      -1.243   2.840   2.913  0.00  0.00    +0.000 A 
ATOM     11  N   UNK     1      -0.436   2.755   1.890  0.00  0.00    +0.000 NA
ATOM     12  C   UNK     1      -2.280  -0.418   1.482  0.00  0.00    +0.000 C 
BRANCH   7  14
ATOM     13  C   UNK     1      -0.753   1.593  -1.232  0.00  0.00    +0.000 C 
ATOM     14  C   UNK     1      -0.013   1.086   0.008  0.00  0.00    +0.000 C 
ENDBRANCH   7  14
ENDBRANCH   1   9
BRANCH   5  15
ATOM     15  S   UNK     1      -5.640  -1.560   4.556  0.00  0.00    +0.000 S 
BRANCH  15  16
ATOM     16  C   UNK     1      -6.742  -1.422   5.985  0.00  0.00    +0.000 C 
BRANCH  16  17
ATOM     17  C   UNK     1      -7.645  -2.655   6.054  0.00  0.00    +0.000 C 
BRANCH  17  18
ATOM     18  N   UNK     1      -8.427  -2.745   4.808  0.00  0.00    +0.000 N 
ATOM     19  H   UNK     1      -7.790  -2.832   4.003  0.00  0.00    +0.000 HD
ATOM     20  H   UNK     1      -9.007  -1.902   4.699  0.00  0.00    +0.000 HD
ATOM     21  H   UNK     1      -9.037  -3.574   4.849  0.00  0.00    +0.000 HD
ENDBRANCH  17  18
BRANCH  17  22
ATOM     22  C   UNK     1      -8.563  -2.539   7.244  0.00  0.00    +0.000 C 
ATOM     23  O   UNK     1      -9.704  -2.174   7.093  0.00  0.00    +0.000 OA
ATOM     24  O   UNK     1      -8.112  -2.843   8.471  0.00  0.00    +0.000 OA
ENDBRANCH  17  22
ENDBRANCH  16  17
ENDBRANCH  15  16
ENDBRANCH   5  15
TORSDOF 7
ENDMDL
MODEL     1147
REMARK  Name = ZINC31819625
REMARK  8 active torsions:
REMARK  status: ('A' for Active; 'I' for Inactive)
REMARK    1  A    between atoms: C_1  and  C_2
REMARK    2  A    between atoms: C_5  and  C_7
REMARK    3  A    between atoms: C_7  and  C_8
REMARK    4  A    between atoms: C_7  and  C_10
REMARK    5  A    between atoms: C_10  and  C_12
REMARK    6  A    between atoms: C_12  and  S_13
REMARK    7  A    between atoms: S_13  and  C_14
REMARK    8  A    between atoms: C_18  and  N_20
REMARK                            x       y       z     vdW  Elec       q    Type
REMARK                         _______ _______ _______ _____ _____    ______ ____
ROOT
ATOM      1  S   UNL     1       0.046  -2.542   0.962  0.00  0.00    +0.000 S 
ENDROOT
BRANCH   1   2
ATOM      2  C   UNL     1       0.070  -3.169   2.609  0.00  0.00    +0.000 A 
ATOM      3  N   UNL     1       0.073  -2.317   3.624  0.00  0.00    +0.000 N 
ATOM      4  C   UNL     1       0.086  -2.754   4.881  0.00  0.00    +0.000 A 
ATOM      5  C   UNL     1       0.107  -4.125   5.121  0.00  0.00    +0.000 A 
ATOM      6  C   UNL     1       0.108  -4.989   4.030  0.00  0.00    +0.000 A 
ATOM      7  N   UNL     1       0.089  -4.480   2.800  0.00  0.00    +0.000 NA
ATOM      8  N   UNL     1       0.083  -1.856   5.937  0.00  0.00    +0.000 N 
ATOM      9  H   UNL     1       0.066  -1.304   3.438  0.00  0.00    +0.000 HD
ATOM     10  H   UNL     1       0.071  -0.844   5.746  0.00  0.00    +0.000 HD
ATOM     11  H   UNL     1       0.093  -2.198   6.908  0.00  0.00    +0.000 HD
BRANCH   6  12
ATOM     12  N   UNL     1       0.128  -6.362   4.221  0.00  0.00    +0.000 N 
ATOM     13  H   UNL     1       0.142  -6.743   5.178  0.00  0.00    +0.000 HD
ATOM     14  H   UNL     1       0.129  -6.998   3.411  0.00  0.00    +0.000 HD
ENDBRANCH   6  12
ENDBRANCH   1   2
BRANCH   1  15
ATOM     15  C   UNL     1       0.025  -0.764   1.303  0.00  0.00    +0.000 C 
BRANCH  15  16
ATOM     16  C   UNL     1       0.002  -0.004   0.002  0.00  0.00    +0.000 C 
ATOM     17  O   UNL     1       0.000  -0.602  -1.047  0.00  0.00    +0.000 OA
BRANCH  16  18
ATOM     18  C   UNL     1      -0.018   1.503   0.010  0.00  0.00    +0.000 C 
BRANCH  18  23
ATOM     19  C   UNL     1      -3.586   3.951  -2.501  0.00  0.00    +0.000 C 
ATOM     20  C   UNL     1      -2.345   3.099  -2.438  0.00  0.00    +0.000 A 
ATOM     21  C   UNL     1      -1.733   2.676  -3.574  0.00  0.00    +0.000 A 
ATOM     22  S   UNL     1      -0.373   1.742  -2.886  0.00  0.00    +0.000 S 
ATOM     23  C   UNL     1      -0.747   2.002  -1.211  0.00  0.00    +0.000 A 
ATOM     24  N   UNL     1      -1.831   2.740  -1.280  0.00  0.00    +0.000 NA
ENDBRANCH  18  23
BRANCH  18  25
ATOM     25  C   UNL     1       1.363   2.012  -0.000  0.00  0.00    +0.000 C 
ATOM     26  N   UNL     1       2.428   2.405  -0.008  0.00  0.00    +0.000 NA
ENDBRANCH  18  25
ENDBRANCH  16  18
ENDBRANCH  15  16
ENDBRANCH   1  15
TORSDOF 7
ENDMDL
MODEL     1148
REMARK  Name = ZINC00531613
REMARK  9 active torsions:
REMARK  status: ('A' for Active; 'I' for Inactive)
REMARK    1  A    between atoms: C_1  and  O_2
REMARK    2  A    between atoms: O_2  and  C_3
REMARK    3  A    between atoms: C_6  and  C_11
REMARK    4  A    between atoms: C_8  and  O_9
REMARK    5  A    between atoms: O_9  and  C_10
REMARK    6  A    between atoms: C_14  and  S_17
REMARK    7  A    between atoms: N_15  and  N_16
REMARK    8  A    between atoms: S_17  and  C_18
REMARK    9  A    between atoms: C_18  and  C_19
REMARK                            x       y       z     vdW  Elec       q    Type
REMARK                         _______ _______ _______ _____ _____    ______ ____
ROOT
ATOM      1  C   UNL     1      -2.087   1.770  -1.058  0.00  0.00    +0.000 A 
ATOM      2  N   UNL     1      -2.373   2.215  -2.260  0.00  0.00    +0.000 NA
ATOM      3  N   UNL     1      -1.312   2.232  -2.985  0.00  0.00    +0.000 NA
ATOM      4  C   UNL     1      -0.283   1.805  -2.289  0.00  0.00    +0.000 A 
ATOM      5  N   UNL     1      -0.741   1.490  -1.041  0.00  0.00    +0.000 N 
ENDROOT
BRANCH   1   9
ATOM      6  C   UNL     1      -4.806   1.286   2.175  0.00  0.00    +0.000 A 
ATOM      7  C   UNL     1      -3.439   1.264   2.410  0.00  0.00    +0.000 A 
ATOM      8  C   UNL     1      -2.554   1.421   1.363  0.00  0.00    +0.000 A 
ATOM      9  C   UNL     1      -3.034   1.602   0.065  0.00  0.00    +0.000 A 
ATOM     10  C   UNL     1      -4.410   1.629  -0.170  0.00  0.00    +0.000 A 
ATOM     11  C   UNL     1      -5.291   1.465   0.882  0.00  0.00    +0.000 A 
BRANCH  11  12
ATOM     12  O   UNL     1      -6.632   1.485   0.656  0.00  0.00    +0.000 OA
ATOM     13  C   UNL     1      -7.059   1.673  -0.695  0.00  0.00    +0.000 C 
ENDBRANCH  11  12
BRANCH   6  15
ATOM     14  C   UNL     1      -5.109   0.951   4.510  0.00  0.00    +0.000 C 
ATOM     15  O   UNL     1      -5.674   1.131   3.210  0.00  0.00    +0.000 OA
ENDBRANCH   6  15
ENDBRANCH   1   9
BRANCH   5  16
ATOM     16  N   UNL     1      -0.012   1.005   0.008  0.00  0.00    +0.000 N 
ATOM     17  H   UNL     1      -0.551   0.838   0.869  0.00  0.00    +0.000 HD
ATOM     18  H   UNL     1       1.000   0.814  -0.040  0.00  0.00    +0.000 HD
ENDBRANCH   5  16
BRANCH   4  19
ATOM     19  S   UNL     1       1.377   1.660  -2.861  0.00  0.00    +0.000 S 
BRANCH  19  20
ATOM     20  C   UNL     1       1.178   2.252  -4.560  0.00  0.00    +0.000 C 
BRANCH  20  21
ATOM     21  C   UNL     1       2.509   2.216  -5.264  0.00  0.00    +0.000 C 
ATOM     22  O   UNL     1       3.497   1.829  -4.675  0.00  0.00    +0.000 OA
ATOM     23  N   UNL     1       2.603   2.615  -6.548  0.00  0.00    +0.000 N 
ATOM     24  H   UNL     1       1.765   2.944  -7.048  0.00  0.00    +0.000 HD
ATOM     25  H   UNL     1       3.514   2.590  -7.029  0.00  0.00    +0.000 HD
ENDBRANCH  20  21
ENDBRANCH  19  20
ENDBRANCH   4  19
TORSDOF 7
ENDMDL
MODEL     1149
REMARK  Name = ZINC06023209
REMARK  9 active torsions:
REMARK  status: ('A' for Active; 'I' for Inactive)
REMARK    1  A    between atoms: C_1  and  C_2
REMARK    2  A    between atoms: C_2  and  C_3
REMARK    3  A    between atoms: C_2  and  C_4
REMARK    4  A    between atoms: C_4  and  C_5
REMARK    5  A    between atoms: C_5  and  N_6
REMARK    6  A    between atoms: N_13  and  C_22
REMARK    7  A    between atoms: N_17  and  N_18
REMARK    8  A    between atoms: N_18  and  C_19
REMARK    9  A    between atoms: C_19  and  C_21
REMARK                            x       y       z     vdW  Elec       q    Type
REMARK                         _______ _______ _______ _____ _____    ______ ____
ROOT
ATOM      1  N   UNL     1      -1.022   2.360   0.019  0.00  0.00    +0.000 N 
ATOM      2  C   UNL     1      -0.017   1.402   0.010  0.00  0.00    +0.000 A 
ATOM      3  C   UNL     1       0.002  -0.004   0.002  0.00  0.00    +0.000 A 
ATOM      4  O   UNL     1      -1.041  -0.634   0.008  0.00  0.00    +0.000 OA
ATOM      5  N   UNL     1       1.187  -0.648  -0.013  0.00  0.00    +0.000 N 
ATOM      6  C   UNL     1       2.346   0.034  -0.020  0.00  0.00    +0.000 A 
ATOM      7  O   UNL     1       3.395  -0.581  -0.034  0.00  0.00    +0.000 OA
ATOM      8  N   UNL     1       2.373   1.380  -0.013  0.00  0.00    +0.000 N 
ATOM      9  C   UNL     1       1.187   2.097   0.002  0.00  0.00    +0.000 A 
ATOM     10  N   UNL     1       0.900   3.400   0.012  0.00  0.00    +0.000 NA
ATOM     11  C   UNL     1      -0.406   3.572   0.025  0.00  0.00    +0.000 A 
ATOM     12  N   UNL     1      -1.048   4.790   0.037  0.00  0.00    +0.000 N 
ATOM     13  C   UNL     1       3.656   2.086  -0.021  0.00  0.00    +0.000 C 
ATOM     14  H   UNL     1       1.205  -1.678  -0.018  0.00  0.00    +0.000 HD
ATOM     15  H   UNL     1      -2.077   4.829   0.047  0.00  0.00    +0.000 HD
ENDROOT
BRANCH  12  16
ATOM     16  N   UNL     1      -0.301   5.975   0.037  0.00  0.00    +0.000 NA
ATOM     17  H   UNL     1       0.318   5.956  -0.787  0.00  0.00    +0.000 HD
ATOM     18  H   UNL     1       0.332   5.947   0.849  0.00  0.00    +0.000 HD
BRANCH  16  19
ATOM     19  C   UNL     1      -0.949   7.204   0.049  0.00  0.00    +0.000 C 
ATOM     20  C   UNL     1      -2.267   7.255   0.061  0.00  0.00    +0.000 C 
ATOM     21  C   UNL     1      -0.145   8.479   0.048  0.00  0.00    +0.000 C 
ENDBRANCH  16  19
ENDBRANCH  12  16
BRANCH   1  22
ATOM     22  C   UNL     1      -2.466   2.113   0.023  0.00  0.00    +0.000 C 
BRANCH  22  23
ATOM     23  C   UNL     1      -2.963   2.018   1.466  0.00  0.00    +0.000 C 
BRANCH  23  25
ATOM     24  C   UNL     1      -4.947   1.541   2.908  0.00  0.00    +0.000 C 
ATOM     25  C   UNL     1      -4.471   1.760   1.470  0.00  0.00    +0.000 C 
ATOM     26  C   UNL     1      -5.197   2.966   0.870  0.00  0.00    +0.000 C 
ENDBRANCH  23  25
ENDBRANCH  22  23
ENDBRANCH   1  22
TORSDOF 5
ENDMDL
MODEL     1150
REMARK  Name = ZINC09305196
REMARK  7 active torsions:
REMARK  status: ('A' for Active; 'I' for Inactive)
REMARK    1  A    between atoms: N_14  and  C_15
REMARK    2  A    between atoms: C_15  and  C_16
REMARK    3  A    between atoms: C_16  and  C_17
REMARK    4  A    between atoms: C_17  and  C_18
REMARK    5  A    between atoms: N_20  and  C_21
REMARK    6  A    between atoms: C_21  and  C_22
REMARK    7  A    between atoms: C_22  and  O_23
REMARK                            x       y       z     vdW  Elec       q    Type
REMARK                         _______ _______ _______ _____ _____    ______ ____
ROOT
ATOM      1  C   UNL     1      -0.013   1.076   0.008  0.00  0.00    +0.000 A 
ATOM      2  C   UNL     1      -1.222   1.747   0.017  0.00  0.00    +0.000 A 
ATOM      3  C   UNL     1      -1.249   3.130   0.032  0.00  0.00    +0.000 A 
ATOM      4  C   UNL     1      -0.062   3.840   0.026  0.00  0.00    +0.000 A 
ATOM      5  C   UNL     1       1.160   3.165   0.009  0.00  0.00    +0.000 A 
ATOM      6  C   UNL     1       1.178   1.780   0.000  0.00  0.00    +0.000 A 
ATOM      7  N   UNL     1       2.353   3.897  -0.004  0.00  0.00    +0.000 N 
ATOM      8  C   UNL     1       2.356   5.212   0.282  0.00  0.00    +0.000 C 
ATOM      9  O   UNL     1       3.395   5.836   0.221  0.00  0.00    +0.000 OA
ATOM     10  C   UNL     1       1.085   5.920   0.675  0.00  0.00    +0.000 C 
ATOM     11  N   UNL     1      -0.057   5.244   0.041  0.00  0.00    +0.000 N 
ATOM     12  C   UNL     1      -1.066   5.950  -0.507  0.00  0.00    +0.000 C 
ATOM     13  O   UNL     1      -2.000   5.371  -1.026  0.00  0.00    +0.000 OA
ATOM     14  N   UNL     1      -1.039   7.297  -0.479  0.00  0.00    +0.000 N 
ATOM     15  H   UNL     1       3.238   3.424  -0.235  0.00  0.00    +0.000 HD
ATOM     16  H   UNL     1      -0.247   7.787  -0.040  0.00  0.00    +0.000 HD
ENDROOT
BRANCH  14  17
ATOM     17  C   UNL     1      -2.135   8.064  -1.075  0.00  0.00    +0.000 C 
BRANCH  17  18
ATOM     18  C   UNL     1      -1.861   9.560  -0.910  0.00  0.00    +0.000 C 
BRANCH  18  19
ATOM     19  C   UNL     1      -3.006  10.361  -1.533  0.00  0.00    +0.000 C 
BRANCH  19  20
ATOM     20  C   UNL     1      -2.735  11.834  -1.370  0.00  0.00    +0.000 C 
ATOM     21  O   UNL     1      -1.725  12.207  -0.811  0.00  0.00    +0.000 OA
ATOM     22  N   UNL     1      -3.615  12.738  -1.845  0.00  0.00    +0.000 N 
ATOM     23  H   UNL     1      -4.473  12.421  -2.320  0.00  0.00    +0.000 HD
BRANCH  22  24
ATOM     24  C   UNL     1      -3.352  14.170  -1.687  0.00  0.00    +0.000 C 
BRANCH  24  25
ATOM     25  C   UNL     1      -4.497  14.971  -2.310  0.00  0.00    +0.000 C 
BRANCH  25  26
ATOM     26  O   UNL     1      -5.701  14.725  -1.581  0.00  0.00    +0.000 OA
ATOM     27  H   UNL     1      -5.580  15.002  -0.638  0.00  0.00    +0.000 HD
ENDBRANCH  25  26
ENDBRANCH  24  25
ENDBRANCH  22  24
ENDBRANCH  19  20
ENDBRANCH  18  19
ENDBRANCH  17  18
ENDBRANCH  14  17
TORSDOF 7
ENDMDL
MODEL     1151
REMARK  Name = ZINC28932585
REMARK  6 active torsions:
REMARK  status: ('A' for Active; 'I' for Inactive)
REMARK    1  A    between atoms: C_1  and  N_2
REMARK    2  A    between atoms: C_3  and  S_8
REMARK    3  A    between atoms: S_8  and  C_9
REMARK    4  A    between atoms: C_9  and  C_10
REMARK    5  A    between atoms: N_15  and  C_16
REMARK    6  A    between atoms: C_16  and  C_17
REMARK                            x       y       z     vdW  Elec       q    Type
REMARK                         _______ _______ _______ _____ _____    ______ ____
ROOT
ATOM      1  C   UNL     1      -0.724   1.610  -1.213  0.00  0.00    +0.000 C 
ATOM      2  O   UNL     1      -1.713   2.300  -1.089  0.00  0.00    +0.000 OA
ATOM      3  N   UNL     1      -0.271   1.298  -2.443  0.00  0.00    +0.000 N 
ATOM      4  C   UNL     1      -0.917   1.752  -3.535  0.00  0.00    +0.000 C 
ATOM      5  O   UNL     1      -1.909   2.444  -3.410  0.00  0.00    +0.000 OA
ATOM      6  N   UNL     1      -0.464   1.440  -4.765  0.00  0.00    +0.000 N 
ATOM      7  H   UNL     1       0.569   0.711  -2.549  0.00  0.00    +0.000 HD
ATOM      8  H   UNL     1       0.376   0.853  -4.871  0.00  0.00    +0.000 HD
ENDROOT
BRANCH   1   9
ATOM      9  C   UNL     1      -0.002   1.102   0.008  0.00  0.00    +0.000 C 
BRANCH   9  10
ATOM     10  S   UNL     1      -0.847   1.688   1.497  0.00  0.00    +0.000 S 
BRANCH  10  13
ATOM     11  C   UNL     1      -1.063   1.814   4.774  0.00  0.00    +0.000 C 
ATOM     12  N   UNL     1       0.002   1.080   4.086  0.00  0.00    +0.000 N 
ATOM     13  C   UNL     1       0.179   0.968   2.735  0.00  0.00    +0.000 A 
ATOM     14  N   UNL     1       1.248   0.222   2.516  0.00  0.00    +0.000 N 
ATOM     15  C   UNL     1       1.791  -0.149   3.680  0.00  0.00    +0.000 A 
ATOM     16  O   UNL     1       2.789  -0.835   3.811  0.00  0.00    +0.000 OA
ATOM     17  N   UNL     1       1.050   0.361   4.685  0.00  0.00    +0.000 NA
ATOM     18  H   UNL     1       1.609  -0.035   1.587  0.00  0.00    +0.000 HD
ENDBRANCH  10  13
ENDBRANCH   9  10
ENDBRANCH   1   9
BRANCH   6  19
ATOM     19  C   UNL     1      -1.167   1.934  -5.952  0.00  0.00    +0.000 C 
BRANCH  19  20
ATOM     20  C   UNL     1      -0.463   1.446  -7.192  0.00  0.00    +0.000 A 
ATOM     21  C   UNL     1      -0.720   0.296  -7.842  0.00  0.00    +0.000 A 
ATOM     22  C   UNL     1       0.168   0.240  -8.941  0.00  0.00    +0.000 A 
ATOM     23  C   UNL     1       0.914   1.358  -8.897  0.00  0.00    +0.000 A 
ATOM     24  O   UNL     1       0.524   2.087  -7.839  0.00  0.00    +0.000 OA
ENDBRANCH  19  20
ENDBRANCH   6  19
TORSDOF 5
ENDMDL
MODEL     1152
REMARK  Name = ZINC18086138
REMARK  8 active torsions:
REMARK  status: ('A' for Active; 'I' for Inactive)
REMARK    1  A    between atoms: C_1  and  N_2
REMARK    2  A    between atoms: C_4  and  C_11
REMARK    3  A    between atoms: N_7  and  C_10
REMARK    4  A    between atoms: N_12  and  C_13
REMARK    5  A    between atoms: C_13  and  C_14
REMARK    6  A    between atoms: C_14  and  C_15
REMARK    7  A    between atoms: C_15  and  N_23
REMARK    8  A    between atoms: C_16  and  N_23
REMARK                            x       y       z     vdW  Elec       q    Type
REMARK                         _______ _______ _______ _____ _____    ______ ____
ROOT
ATOM      1  C   UNL     1      -5.478   3.494   1.350  0.00  0.00    +0.000 C 
ATOM      2  N   UNL     1      -4.840   2.364   1.342  0.00  0.00    +0.000 NA
ENDROOT
BRANCH   1   6
ATOM      3  C   UNL     1      -3.522   6.011  -2.417  0.00  0.00    +0.000 C 
ATOM      4  N   UNL     1      -4.689   5.478  -1.711  0.00  0.00    +0.000 N 
ATOM      5  C   UNL     1      -4.508   4.768  -0.559  0.00  0.00    +0.000 A 
ATOM      6  C   UNL     1      -5.624   4.262   0.109  0.00  0.00    +0.000 A 
ATOM      7  C   UNL     1      -6.947   4.527  -0.465  0.00  0.00    +0.000 A 
ATOM      8  O   UNL     1      -7.954   4.113   0.080  0.00  0.00    +0.000 OA
ATOM      9  N   UNL     1      -7.026   5.234  -1.610  0.00  0.00    +0.000 N 
ATOM     10  C   UNL     1      -5.916   5.697  -2.210  0.00  0.00    +0.000 A 
ATOM     11  O   UNL     1      -6.027   6.334  -3.239  0.00  0.00    +0.000 OA
ATOM     12  C   UNL     1      -8.338   5.508  -2.204  0.00  0.00    +0.000 C 
ATOM     13  O   UNL     1      -3.269   4.559  -0.074  0.00  0.00    +0.000 OA
ENDBRANCH   1   6
BRANCH   2  14
ATOM     14  C   UNL     1      -4.203   1.891   0.110  0.00  0.00    +0.000 C 
BRANCH  14  15
ATOM     15  C   UNL     1      -4.895   0.611  -0.362  0.00  0.00    +0.000 C 
BRANCH  15  16
ATOM     16  C   UNL     1      -4.230   0.116  -1.648  0.00  0.00    +0.000 C 
BRANCH  16  17
ATOM     17  N   UNL     1      -4.902  -1.118  -2.097  0.00  0.00    +0.000 N 
ATOM     18  H   UNL     1      -5.898  -0.921  -2.270  0.00  0.00    +0.000 HD
ATOM     19  H   UNL     1      -4.823  -1.836  -1.363  0.00  0.00    +0.000 HD
BRANCH  17  20
ATOM     20  C   UNL     1      -4.280  -1.618  -3.337  0.00  0.00    +0.000 C 
ATOM     21  C   UNL     1      -4.907  -0.913  -4.543  0.00  0.00    +0.000 C 
ATOM     22  C   UNL     1      -4.268  -1.439  -5.829  0.00  0.00    +0.000 C 
ATOM     23  C   UNL     1      -4.507  -2.946  -5.939  0.00  0.00    +0.000 C 
ATOM     24  C   UNL     1      -3.881  -3.651  -4.734  0.00  0.00    +0.000 C 
ATOM     25  C   UNL     1      -4.520  -3.125  -3.447  0.00  0.00    +0.000 C 
ENDBRANCH  17  20
ENDBRANCH  16  17
ENDBRANCH  15  16
ENDBRANCH  14  15
ENDBRANCH   2  14
TORSDOF 6
ENDMDL
MODEL     1153
REMARK  Name = ZINC20341795
REMARK  9 active torsions:
REMARK  status: ('A' for Active; 'I' for Inactive)
REMARK    1  A    between atoms: C_1  and  C_2
REMARK    2  A    between atoms: C_2  and  C_3
REMARK    3  A    between atoms: C_5  and  C_21
REMARK    4  A    between atoms: C_6  and  N_8
REMARK    5  A    between atoms: C_9  and  C_11
REMARK    6  A    between atoms: C_11  and  N_12
REMARK    7  A    between atoms: N_12  and  C_13
REMARK    8  A    between atoms: N_12  and  C_14
REMARK    9  A    between atoms: N_17  and  C_20
REMARK                            x       y       z     vdW  Elec       q    Type
REMARK                         _______ _______ _______ _____ _____    ______ ____
ROOT
ATOM      1  N   UNL     1       2.075   4.191   0.005  0.00  0.00    +0.000 N 
ATOM      2  C   UNL     1       1.751   5.499   0.015  0.00  0.00    +0.000 C 
ATOM      3  O   UNL     1       0.586   5.835   0.028  0.00  0.00    +0.000 OA
ATOM      4  H   UNL     1       3.064   3.905  -0.006  0.00  0.00    +0.000 HD
ENDROOT
BRANCH   1   8
ATOM      5  C   UNL     1      -1.170   1.761   0.017  0.00  0.00    +0.000 A 
ATOM      6  C   UNL     1      -0.013   1.076   0.008  0.00  0.00    +0.000 A 
ATOM      7  C   UNL     1       1.209   1.845   0.000  0.00  0.00    +0.000 A 
ATOM      8  C   UNL     1       1.076   3.230   0.009  0.00  0.00    +0.000 A 
ATOM      9  S   UNL     1      -0.640   3.461   0.027  0.00  0.00    +0.000 S 
BRANCH   7  10
ATOM     10  C   UNL     1       2.524   1.200  -0.016  0.00  0.00    +0.000 C 
ATOM     11  O   UNL     1       3.534   1.877  -0.023  0.00  0.00    +0.000 OA
ATOM     12  O   UNL     1       2.614  -0.146  -0.024  0.00  0.00    +0.000 OA
ENDBRANCH   7  10
BRANCH   5  14
ATOM     13  C   UNL     1      -3.046   1.029   1.464  0.00  0.00    +0.000 C 
ATOM     14  C   UNL     1      -2.576   1.220   0.020  0.00  0.00    +0.000 C 
ENDBRANCH   5  14
ENDBRANCH   1   8
BRANCH   2  15
ATOM     15  C   UNL     1       2.837   6.544   0.010  0.00  0.00    +0.000 C 
BRANCH  15  16
ATOM     16  N   UNL     1       2.229   7.881   0.023  0.00  0.00    +0.000 NA
ATOM     17  C   UNL     1       1.492   8.137  -1.222  0.00  0.00    +0.000 C 
BRANCH  16  18
ATOM     18  C   UNL     1       3.243   8.918   0.257  0.00  0.00    +0.000 C 
ATOM     19  C   UNL     1       3.916   8.679   1.612  0.00  0.00    +0.000 C 
ATOM     20  C   UNL     1       4.928   9.796   1.877  0.00  0.00    +0.000 C 
ATOM     21  N   UNL     1       4.239  11.093   1.875  0.00  0.00    +0.000 N 
ATOM     22  C   UNL     1       3.625  11.366   0.569  0.00  0.00    +0.000 C 
ATOM     23  C   UNL     1       2.574  10.296   0.264  0.00  0.00    +0.000 C 
ATOM     24  C   UNL     1       5.153  12.176   2.263  0.00  0.00    +0.000 C 
ATOM     25  H   UNL     1       3.484  11.049   2.574  0.00  0.00    +0.000 HD
ENDBRANCH  16  18
ENDBRANCH  15  16
ENDBRANCH   2  15
TORSDOF 6
ENDMDL
MODEL     1154
REMARK  Name = ZINC27082580
REMARK  9 active torsions:
REMARK  status: ('A' for Active; 'I' for Inactive)
REMARK    1  A    between atoms: C_1  and  C_2
REMARK    2  A    between atoms: C_5  and  C_8
REMARK    3  A    between atoms: C_8  and  O_9
REMARK    4  A    between atoms: C_10  and  N_11
REMARK    5  A    between atoms: N_11  and  C_12
REMARK    6  A    between atoms: C_12  and  C_13
REMARK    7  A    between atoms: C_13  and  N_14
REMARK    8  A    between atoms: C_15  and  C_17
REMARK    9  A    between atoms: N_21  and  C_22
REMARK                            x       y       z     vdW  Elec       q    Type
REMARK                         _______ _______ _______ _____ _____    ______ ____
ROOT
ATOM      1  N   UNL     1      -0.751   1.066  -2.198  0.00  0.00    +0.000 N 
ATOM      2  H   UNL     1      -1.371   0.869  -1.399  0.00  0.00    +0.000 HD
ENDROOT
BRANCH   1  10
ATOM      3  C   UNL     1      -0.384   1.668   2.948  0.00  0.00    +0.000 C 
ATOM      4  C   UNL     1       0.494   1.935   1.752  0.00  0.00    +0.000 C 
ATOM      5  C   UNL     1       0.033   1.626   0.480  0.00  0.00    +0.000 C 
ATOM      6  C   UNL     1       0.863   1.887  -0.623  0.00  0.00    +0.000 C 
ATOM      7  C   UNL     1       2.124   2.445  -0.381  0.00  0.00    +0.000 C 
ATOM      8  C   UNL     1       2.499   2.714   0.918  0.00  0.00    +0.000 C 
ATOM      9  N   UNL     1       1.692   2.454   1.929  0.00  0.00    +0.000 NA
ATOM     10  C   UNL     1       0.418   1.582  -1.996  0.00  0.00    +0.000 C 
ATOM     11  O   UNL     1      -1.200   1.086   0.305  0.00  0.00    +0.000 OA
BRANCH   7  12
ATOM     12  C   UNL     1       3.057   2.748  -1.525  0.00  0.00    +0.000 C 
BRANCH  12  13
ATOM     13  O   UNL     1       4.269   3.307  -1.015  0.00  0.00    +0.000 OA
ATOM     14  H   UNL     1       4.700   2.660  -0.401  0.00  0.00    +0.000 HD
ENDBRANCH  12  13
ENDBRANCH   7  12
ENDBRANCH   1  10
BRANCH   1  15
ATOM     15  C   UNL     1      -1.193   0.763  -3.561  0.00  0.00    +0.000 C 
BRANCH  15  16
ATOM     16  C   UNL     1      -1.365  -0.750  -3.717  0.00  0.00    +0.000 C 
BRANCH  16  17
ATOM     17  N   UNL     1      -1.806  -1.053  -5.081  0.00  0.00    +0.000 N 
ATOM     18  C   UNL     1      -2.025  -2.330  -5.450  0.00  0.00    +0.000 C 
ATOM     19  O   UNL     1      -1.772  -3.238  -4.680  0.00  0.00    +0.000 OA
ATOM     20  H   UNL     1      -1.950  -0.289  -5.757  0.00  0.00    +0.000 HD
BRANCH  18  21
ATOM     21  C   UNL     1      -2.567  -2.627  -6.780  0.00  0.00    +0.000 A 
ATOM     22  C   UNL     1      -2.927  -1.703  -7.738  0.00  0.00    +0.000 A 
ATOM     23  C   UNL     1      -3.390  -2.419  -8.846  0.00  0.00    +0.000 A 
ATOM     24  C   UNL     1      -3.307  -3.739  -8.552  0.00  0.00    +0.000 A 
ATOM     25  N   UNL     1      -2.804  -3.879  -7.302  0.00  0.00    +0.000 N 
ATOM     26  C   UNL     1      -2.555  -5.150  -6.618  0.00  0.00    +0.000 C 
ENDBRANCH  18  21
ENDBRANCH  16  17
ENDBRANCH  15  16
ENDBRANCH   1  15
TORSDOF 7
ENDMDL
MODEL     1155
REMARK  Name = ZINC23581326
REMARK  7 active torsions:
REMARK  status: ('A' for Active; 'I' for Inactive)
REMARK    1  A    between atoms: N_4  and  C_6
REMARK    2  A    between atoms: C_6  and  C_7
REMARK    3  A    between atoms: C_7  and  N_8
REMARK    4  A    between atoms: C_12  and  N_15
REMARK    5  A    between atoms: C_19  and  C_21
REMARK    6  A    between atoms: C_21  and  C_22
REMARK    7  A    between atoms: C_22  and  N_23
REMARK                            x       y       z     vdW  Elec       q    Type
REMARK                         _______ _______ _______ _____ _____    ______ ____
ROOT
ATOM      1  N   UNL     1       4.262  -1.312  -4.474  0.00  0.00    +0.000 N 
ATOM      2  C   UNL     1       4.052   0.015  -4.362  0.00  0.00    +0.000 A 
ATOM      3  O   UNL     1       4.497   0.780  -5.204  0.00  0.00    +0.000 OA
ATOM      4  C   UNL     1       3.320   0.510  -3.275  0.00  0.00    +0.000 A 
ATOM      5  C   UNL     1       2.828  -0.378  -2.337  0.00  0.00    +0.000 A 
ATOM      6  C   UNL     1       3.078  -1.759  -2.491  0.00  0.00    +0.000 A 
ATOM      7  N   UNL     1       3.757  -2.195  -3.515  0.00  0.00    +0.000 NA
ENDROOT
BRANCH   5   8
ATOM      8  N   UNL     1       2.102   0.083  -1.253  0.00  0.00    +0.000 N 
ATOM      9  C   UNL     1       2.043   1.552  -1.244  0.00  0.00    +0.000 C 
ATOM     10  C   UNL     1       1.284   2.019   0.001  0.00  0.00    +0.000 C 
ATOM     11  O   UNL     1      -0.017   1.426   0.010  0.00  0.00    +0.000 OA
ATOM     12  C   UNL     1       0.002  -0.004   0.002  0.00  0.00    +0.000 C 
ATOM     13  C   UNL     1       0.749  -0.492  -1.242  0.00  0.00    +0.000 C 
BRANCH  12  14
ATOM     14  C   UNL     1      -1.433  -0.534  -0.022  0.00  0.00    +0.000 C 
BRANCH  14  15
ATOM     15  C   UNL     1      -2.142  -0.147   1.277  0.00  0.00    +0.000 C 
BRANCH  15  16
ATOM     16  N   UNL     1      -3.520  -0.656   1.254  0.00  0.00    +0.000 N 
ATOM     17  H   UNL     1      -3.506  -1.682   1.164  0.00  0.00    +0.000 HD
ATOM     18  H   UNL     1      -4.024  -0.248   0.453  0.00  0.00    +0.000 HD
ATOM     19  H   UNL     1      -3.998  -0.395   2.128  0.00  0.00    +0.000 HD
ENDBRANCH  15  16
ENDBRANCH  14  15
ENDBRANCH  12  14
ENDBRANCH   5   8
BRANCH   1  20
ATOM     20  C   UNL     1       5.027  -1.833  -5.610  0.00  0.00    +0.000 C 
BRANCH  20  21
ATOM     21  C   UNL     1       6.512  -1.885  -5.244  0.00  0.00    +0.000 C 
BRANCH  21  25
ATOM     22  C   UNL     1       8.750  -2.603  -7.978  0.00  0.00    +0.000 A 
ATOM     23  C   UNL     1       7.932  -3.738  -7.997  0.00  0.00    +0.000 A 
ATOM     24  N   UNL     1       7.052  -3.623  -7.035  0.00  0.00    +0.000 NA
ATOM     25  N   UNL     1       7.277  -2.406  -6.379  0.00  0.00    +0.000 N 
ATOM     26  C   UNL     1       8.326  -1.801  -6.974  0.00  0.00    +0.000 A 
ENDBRANCH  21  25
ENDBRANCH  20  21
ENDBRANCH   1  20
TORSDOF 7
ENDMDL
MODEL     1156
REMARK  Name = ZINC26533014
REMARK  8 active torsions:
REMARK  status: ('A' for Active; 'I' for Inactive)
REMARK    1  A    between atoms: C_1  and  N_2
REMARK    2  A    between atoms: C_10  and  N_11
REMARK    3  A    between atoms: N_11  and  C_12
REMARK    4  A    between atoms: C_15  and  O_18
REMARK    5  A    between atoms: O_18  and  C_19
REMARK    6  A    between atoms: N_20  and  C_21
REMARK    7  A    between atoms: C_21  and  C_22
REMARK    8  A    between atoms: C_22  and  O_23
REMARK                            x       y       z     vdW  Elec       q    Type
REMARK                         _______ _______ _______ _____ _____    ______ ____
ROOT
ATOM      1  C   UNL     1       0.569  -3.104   0.390  0.00  0.00    +0.000 C 
ATOM      2  N   UNL     1       1.487  -1.970   0.256  0.00  0.00    +0.000 N 
ATOM      3  C   UNL     1       2.833  -2.041   0.048  0.00  0.00    +0.000 A 
ATOM      4  N   UNL     1       3.336  -0.844  -0.022  0.00  0.00    +0.000 NA
ATOM      5  C   UNL     1       2.348   0.071   0.136  0.00  0.00    +0.000 A 
ATOM      6  C   UNL     1       1.150  -0.641   0.316  0.00  0.00    +0.000 A 
ATOM      7  N   UNL     1       0.018   0.031   0.495  0.00  0.00    +0.000 NA
ATOM      8  C   UNL     1       0.015   1.355   0.505  0.00  0.00    +0.000 A 
ATOM      9  N   UNL     1       1.122   2.067   0.339  0.00  0.00    +0.000 NA
ATOM     10  C   UNL     1       2.297   1.475   0.153  0.00  0.00    +0.000 A 
ATOM     11  N   UNL     1      -1.187   2.019   0.688  0.00  0.00    +0.000 N 
ATOM     12  H   UNL     1      -2.058   1.484   0.815  0.00  0.00    +0.000 HD
ENDROOT
BRANCH  10  13
ATOM     13  N   UNL     1       3.447   2.227  -0.019  0.00  0.00    +0.000 N 
ATOM     14  H   UNL     1       4.363   1.760  -0.076  0.00  0.00    +0.000 HD
BRANCH  13  15
ATOM     15  C   UNL     1       3.364   3.621  -0.117  0.00  0.00    +0.000 A 
ATOM     16  C   UNL     1       2.258   4.211  -0.714  0.00  0.00    +0.000 A 
ATOM     17  C   UNL     1       2.175   5.586  -0.805  0.00  0.00    +0.000 A 
ATOM     18  C   UNL     1       3.201   6.378  -0.311  0.00  0.00    +0.000 A 
ATOM     19  C   UNL     1       4.309   5.789   0.282  0.00  0.00    +0.000 A 
ATOM     20  C   UNL     1       4.391   4.414   0.379  0.00  0.00    +0.000 A 
BRANCH  18  21
ATOM     21  O   UNL     1       3.121   7.732  -0.406  0.00  0.00    +0.000 OA
ATOM     22  C   UNL     1       1.953   8.271  -1.028  0.00  0.00    +0.000 C 
ENDBRANCH  18  21
ENDBRANCH  13  15
ENDBRANCH  10  13
BRANCH  11  23
ATOM     23  C   UNL     1      -1.219   3.484   0.703  0.00  0.00    +0.000 C 
BRANCH  23  24
ATOM     24  C   UNL     1      -2.656   3.960   0.921  0.00  0.00    +0.000 C 
BRANCH  24  25
ATOM     25  O   UNL     1      -3.099   3.560   2.219  0.00  0.00    +0.000 OA
ATOM     26  H   UNL     1      -2.512   3.960   2.907  0.00  0.00    +0.000 HD
ENDBRANCH  24  25
ENDBRANCH  23  24
ENDBRANCH  11  23
TORSDOF 6
ENDMDL
MODEL     1157
REMARK  Name = ZINC31467501
REMARK  9 active torsions:
REMARK  status: ('A' for Active; 'I' for Inactive)
REMARK    1  A    between atoms: C_1  and  N_2
REMARK    2  A    between atoms: N_2  and  C_3
REMARK    3  A    between atoms: N_2  and  C_4
REMARK    4  A    between atoms: C_4  and  C_5
REMARK    5  A    between atoms: C_5  and  N_6
REMARK    6  A    between atoms: C_7  and  C_9
REMARK    7  A    between atoms: C_12  and  N_15
REMARK    8  A    between atoms: C_16  and  C_18
REMARK    9  A    between atoms: C_21  and  O_22
REMARK                            x       y       z     vdW  Elec       q    Type
REMARK                         _______ _______ _______ _____ _____    ______ ____
ROOT
ATOM      1  C   UNL     1       1.178   2.086   0.018  0.00  0.00    +0.000 A 
ATOM      2  C   UNL     1      -0.007   1.369   0.206  0.00  0.00    +0.000 A 
ATOM      3  C   UNL     1       0.014  -0.008   0.193  0.00  0.00    +0.000 A 
ATOM      4  C   UNL     1       1.213  -0.685  -0.008  0.00  0.00    +0.000 A 
ATOM      5  C   UNL     1       2.394   0.026  -0.195  0.00  0.00    +0.000 A 
ATOM      6  C   UNL     1       2.380   1.403  -0.183  0.00  0.00    +0.000 A 
ENDROOT
BRANCH   1   8
ATOM      7  N   UNL     1       2.302   4.252  -0.150  0.00  0.00    +0.000 N 
ATOM      8  C   UNL     1       1.159   3.562   0.031  0.00  0.00    +0.000 C 
ATOM      9  O   UNL     1       0.112   4.155   0.206  0.00  0.00    +0.000 OA
ATOM     10  H   UNL     1       3.189   3.749  -0.298  0.00  0.00    +0.000 HD
BRANCH   7  11
ATOM     11  C   UNL     1       2.284   5.717  -0.137  0.00  0.00    +0.000 C 
BRANCH  11  12
ATOM     12  C   UNL     1       3.701   6.247  -0.364  0.00  0.00    +0.000 C 
BRANCH  12  14
ATOM     13  C   UNL     1       5.046   8.259  -0.328  0.00  0.00    +0.000 C 
ATOM     14  N   UNL     1       3.682   7.716  -0.351  0.00  0.00    +0.000 N 
ATOM     15  C   UNL     1       2.924   8.243  -1.494  0.00  0.00    +0.000 C 
ATOM     16  H   UNL     1       3.206   8.018   0.511  0.00  0.00    +0.000 HD
ENDBRANCH  12  14
ENDBRANCH  11  12
ENDBRANCH   7  11
ENDBRANCH   1   8
BRANCH   4  17
ATOM     17  N   UNL     1       1.231  -2.078  -0.020  0.00  0.00    +0.000 N 
ATOM     18  C   UNL     1       0.176  -2.761  -0.507  0.00  0.00    +0.000 C 
ATOM     19  O   UNL     1      -0.749  -2.165  -1.022  0.00  0.00    +0.000 OA
ATOM     20  H   UNL     1       2.050  -2.586   0.342  0.00  0.00    +0.000 HD
BRANCH  18  21
ATOM     21  C   UNL     1       0.144  -4.237  -0.414  0.00  0.00    +0.000 A 
ATOM     22  C   UNL     1      -0.966  -4.952  -0.926  0.00  0.00    +0.000 A 
ATOM     23  C   UNL     1      -0.960  -6.311  -0.822  0.00  0.00    +0.000 A 
ATOM     24  C   UNL     1       0.155  -6.924  -0.209  0.00  0.00    +0.000 A 
ATOM     25  N   UNL     1       1.165  -6.159   0.248  0.00  0.00    +0.000 NA
ATOM     26  N   UNL     1       1.148  -4.880   0.139  0.00  0.00    +0.000 NA
BRANCH  24  27
ATOM     27  O   UNL     1       0.204  -8.137  -0.094  0.00  0.00    +0.000 OA
ATOM     28  H   UNL     1       0.098  -8.480  -1.016  0.00  0.00    +0.000 HD
ENDBRANCH  24  27
ENDBRANCH  18  21
ENDBRANCH   4  17
TORSDOF 7
ENDMDL
MODEL     1158
REMARK  Name = ZINC07460787
REMARK  8 active torsions:
REMARK  status: ('A' for Active; 'I' for Inactive)
REMARK    1  A    between atoms: C_1  and  C_2
REMARK    2  A    between atoms: N_4  and  N_5
REMARK    3  A    between atoms: C_6  and  C_8
REMARK    4  A    between atoms: C_8  and  N_21
REMARK    5  A    between atoms: C_9  and  N_21
REMARK    6  A    between atoms: C_10  and  C_11
REMARK    7  A    between atoms: C_10  and  N_21
REMARK    8  A    between atoms: N_13  and  C_14
REMARK                            x       y       z     vdW  Elec       q    Type
REMARK                         _______ _______ _______ _____ _____    ______ ____
ROOT
ATOM      1  C   UNL     1       2.460   1.002   0.104  0.00  0.00    +0.000 C 
ENDROOT
BRANCH   1   2
ATOM      2  C   UNL     1       1.124   1.692   0.005  0.00  0.00    +0.000 C 
ATOM      3  O   UNL     1       1.071   2.901  -0.076  0.00  0.00    +0.000 OA
ATOM      4  N   UNL     1      -0.011   0.966   0.007  0.00  0.00    +0.000 N 
ATOM      5  H   UNL     1       0.036  -0.063   0.009  0.00  0.00    +0.000 HD
BRANCH   4   6
ATOM      6  C   UNL     1      -1.254   1.610   0.007  0.00  0.00    +0.000 A 
ATOM      7  C   UNL     1      -2.325   1.055   0.695  0.00  0.00    +0.000 A 
ATOM      8  C   UNL     1      -3.548   1.696   0.699  0.00  0.00    +0.000 A 
ATOM      9  C   UNL     1      -3.711   2.884   0.008  0.00  0.00    +0.000 A 
ATOM     10  C   UNL     1      -2.647   3.436  -0.683  0.00  0.00    +0.000 A 
ATOM     11  C   UNL     1      -1.419   2.802  -0.685  0.00  0.00    +0.000 A 
ATOM     12 CL   UNL     1      -5.252   3.683   0.008  0.00  0.00    +0.000 Cl
ENDBRANCH   4   6
ENDBRANCH   1   2
BRANCH   1  14
ATOM     13  C   UNL     1       3.487   2.852   1.281  0.00  0.00    +0.000 C 
ATOM     14  N   UNL     1       3.529   2.022   0.059  0.00  0.00    +0.000 NA
BRANCH  14  15
ATOM     15  C   UNL     1       4.848   1.368  -0.062  0.00  0.00    +0.000 C 
BRANCH  15  17
ATOM     16  N   UNL     1       7.181   2.067  -0.495  0.00  0.00    +0.000 N 
ATOM     17  C   UNL     1       5.892   2.422  -0.328  0.00  0.00    +0.000 C 
ATOM     18  O   UNL     1       5.571   3.590  -0.390  0.00  0.00    +0.000 OA
ATOM     19  H   UNL     1       7.453   1.075  -0.442  0.00  0.00    +0.000 HD
BRANCH  16  23
ATOM     20  C   UNL     1      10.484   3.747  -1.174  0.00  0.00    +0.000 C 
ATOM     21  C   UNL     1       9.440   2.692  -0.909  0.00  0.00    +0.000 C 
ATOM     22  O   UNL     1       9.761   1.524  -0.846  0.00  0.00    +0.000 OA
ATOM     23  N   UNL     1       8.151   3.047  -0.742  0.00  0.00    +0.000 N 
ATOM     24  H   UNL     1       7.879   4.039  -0.795  0.00  0.00    +0.000 HD
ENDBRANCH  16  23
ENDBRANCH  15  17
ENDBRANCH  14  15
ENDBRANCH   1  14
TORSDOF 6
ENDMDL
MODEL     1159
REMARK  Name = ZINC06451329
REMARK  10 active torsions:
REMARK  status: ('A' for Active; 'I' for Inactive)
REMARK    1  A    between atoms: C_1  and  C_2
REMARK    2  A    between atoms: C_2  and  C_3
REMARK    3  A    between atoms: N_7  and  N_8
REMARK    4  A    between atoms: N_9  and  N_10
REMARK    5  A    between atoms: C_11  and  C_12
REMARK    6  A    between atoms: C_14  and  O_21
REMARK    7  A    between atoms: C_15  and  O_20
REMARK    8  A    between atoms: C_16  and  O_18
REMARK    9  A    between atoms: O_18  and  C_19
REMARK   10  A    between atoms: O_21  and  C_22
REMARK                            x       y       z     vdW  Elec       q    Type
REMARK                         _______ _______ _______ _____ _____    ______ ____
ROOT
ATOM      1  N   UNL     1      -1.002   3.564   0.026  0.00  0.00    +0.000 NA
ATOM      2  C   UNL     1      -2.056   4.321   0.036  0.00  0.00    +0.000 C 
ENDROOT
BRANCH   1   8
ATOM      3  C   UNL     1       1.322  -0.357  -0.013  0.00  0.00    +0.000 A 
ATOM      4  N   UNL     1       2.018   0.745  -0.013  0.00  0.00    +0.000 NA
ATOM      5  N   UNL     1       1.233   1.763  -0.000  0.00  0.00    +0.000 NA
ATOM      6  C   UNL     1      -0.016   1.361   0.009  0.00  0.00    +0.000 A 
ATOM      7  N   UNL     1       0.002  -0.004   0.002  0.00  0.00    +0.000 N 
ATOM      8  N   UNL     1      -1.141   2.170   0.019  0.00  0.00    +0.000 N 
ATOM      9  H   UNL     1      -2.080   1.746   0.022  0.00  0.00    +0.000 HD
BRANCH   7  10
ATOM     10  N   UNL     1      -1.076  -0.843   0.008  0.00  0.00    +0.000 N 
ATOM     11  H   UNL     1      -0.844  -1.847   0.001  0.00  0.00    +0.000 HD
ATOM     12  H   UNL     1      -2.053  -0.517   0.019  0.00  0.00    +0.000 HD
ENDBRANCH   7  10
BRANCH   3  14
ATOM     13  C   UNL     1       2.044  -2.228  -1.471  0.00  0.00    +0.000 C 
ATOM     14  C   UNL     1       1.872  -1.760  -0.025  0.00  0.00    +0.000 C 
ENDBRANCH   3  14
ENDBRANCH   1   8
BRANCH   2  15
ATOM     15  C   UNL     1      -1.910   5.788   0.043  0.00  0.00    +0.000 A 
ATOM     16  C   UNL     1      -0.637   6.365   0.046  0.00  0.00    +0.000 A 
ATOM     17  C   UNL     1      -0.503   7.742   0.047  0.00  0.00    +0.000 A 
ATOM     18  C   UNL     1      -1.633   8.552   0.058  0.00  0.00    +0.000 A 
ATOM     19  C   UNL     1      -2.902   7.981   0.060  0.00  0.00    +0.000 A 
ATOM     20  C   UNL     1      -3.043   6.605   0.053  0.00  0.00    +0.000 A 
BRANCH  19  21
ATOM     21  O   UNL     1      -4.005   8.777   0.070  0.00  0.00    +0.000 OA
ATOM     22  C   UNL     1      -5.276   8.124   0.073  0.00  0.00    +0.000 C 
ENDBRANCH  19  21
BRANCH  18  23
ATOM     23  O   UNL     1      -1.498   9.906   0.065  0.00  0.00    +0.000 OA
ATOM     24  H   UNL     1      -0.950  10.112  -0.733  0.00  0.00    +0.000 HD
ENDBRANCH  18  23
BRANCH  17  25
ATOM     25  O   UNL     1       0.736   8.303   0.044  0.00  0.00    +0.000 OA
ATOM     26  C   UNL     1       1.853   7.412   0.034  0.00  0.00    +0.000 C 
ENDBRANCH  17  25
ENDBRANCH   2  15
TORSDOF 7
ENDMDL
MODEL     1160
REMARK  Name = ZINC13110623
REMARK  4 active torsions:
REMARK  status: ('A' for Active; 'I' for Inactive)
REMARK    1  A    between atoms: C_1  and  O_2
REMARK    2  A    between atoms: O_2  and  C_3
REMARK    3  A    between atoms: C_7  and  N_9
REMARK    4  A    between atoms: C_14  and  C_19
REMARK                            x       y       z     vdW  Elec       q    Type
REMARK                         _______ _______ _______ _____ _____    ______ ____
ROOT
ATOM      1  N   UNL     1      -4.732   1.139   3.959  0.00  0.00    +0.000 N 
ATOM      2  C   UNL     1      -6.078   1.002   4.157  0.00  0.00    +0.000 C 
ATOM      3  N   UNL     1      -6.719   1.849   4.944  0.00  0.00    +0.000 N 
ATOM      4  C   UNL     1      -8.059   1.812   5.020  0.00  0.00    +0.000 A 
ATOM      5  N   UNL     1      -8.704   2.597   5.934  0.00  0.00    +0.000 NA
ATOM      6  C   UNL     1     -10.066   2.573   6.024  0.00  0.00    +0.000 A 
ATOM      7  C   UNL     1     -10.770   1.767   5.201  0.00  0.00    +0.000 A 
ATOM      8  C   UNL     1     -10.073   0.963   4.262  0.00  0.00    +0.000 A 
ATOM      9  O   UNL     1     -10.690   0.227   3.507  0.00  0.00    +0.000 OA
ATOM     10  N   UNL     1      -8.738   1.020   4.203  0.00  0.00    +0.000 NA
ATOM     11  N   UNL     1      -6.760  -0.008   3.542  0.00  0.00    +0.000 N 
ATOM     12  H   UNL     1      -4.239   0.499   3.319  0.00  0.00    +0.000 HD
ATOM     13  H   UNL     1      -6.191   2.537   5.500  0.00  0.00    +0.000 HD
ATOM     14  H   UNL     1      -6.261  -0.668   2.928  0.00  0.00    +0.000 HD
ATOM     15  H   UNL     1      -7.774  -0.111   3.691  0.00  0.00    +0.000 HD
ENDROOT
BRANCH   1  20
ATOM     16  C   UNL     1      -3.690   3.516   6.566  0.00  0.00    +0.000 A 
ATOM     17  C   UNL     1      -2.622   4.141   5.937  0.00  0.00    +0.000 A 
ATOM     18  C   UNL     1      -2.258   3.768   4.657  0.00  0.00    +0.000 A 
ATOM     19  C   UNL     1      -2.956   2.774   4.000  0.00  0.00    +0.000 A 
ATOM     20  C   UNL     1      -4.026   2.146   4.625  0.00  0.00    +0.000 A 
ATOM     21  C   UNL     1      -4.389   2.515   5.912  0.00  0.00    +0.000 A 
BRANCH  16  23
ATOM     22  C   UNL     1      -3.277   4.919   8.441  0.00  0.00    +0.000 C 
ATOM     23  O   UNL     1      -4.046   3.883   7.825  0.00  0.00    +0.000 OA
ENDBRANCH  16  23
ENDBRANCH   1  20
BRANCH   6  24
ATOM     24  C   UNL     1     -10.778   3.439   7.032  0.00  0.00    +0.000 C 
ATOM     25  F   UNL     1     -11.073   4.679   6.455  0.00  0.00    +0.000 F 
ATOM     26  F   UNL     1     -11.965   2.814   7.428  0.00  0.00    +0.000 F 
ATOM     27  F   UNL     1      -9.955   3.628   8.147  0.00  0.00    +0.000 F 
ENDBRANCH   6  24
TORSDOF 3
ENDMDL
MODEL     1161
REMARK  Name = ZINC32062325
REMARK  10 active torsions:
REMARK  status: ('A' for Active; 'I' for Inactive)
REMARK    1  A    between atoms: C_1  and  C_2
REMARK    2  A    between atoms: C_2  and  C_3
REMARK    3  A    between atoms: C_3  and  C_4
REMARK    4  A    between atoms: C_5  and  C_6
REMARK    5  A    between atoms: C_7  and  C_20
REMARK    6  A    between atoms: N_10  and  C1*_11
REMARK    7  A    between atoms: C2*_12  and  O2*_19
REMARK    8  A    between atoms: C3*_13  and  O3*_18
REMARK    9  A    between atoms: C4*_14  and  C5*_16
REMARK   10  A    between atoms: C5*_16  and  O5*_17
REMARK                            x       y       z     vdW  Elec       q    Type
REMARK                         _______ _______ _______ _____ _____    ______ ____
ROOT
ATOM      1  C   UNL     1       2.440   1.075   0.629  0.00  0.00    +0.000 A 
ATOM      2  C   UNL     1       3.513   1.913   0.344  0.00  0.00    +0.000 A 
ATOM      3  N   UNL     1       3.045   2.913  -0.433  0.00  0.00    +0.000 NA
ATOM      4  C   UNL     1       1.772   2.740  -0.644  0.00  0.00    +0.000 A 
ATOM      5  N   UNL     1       1.352   1.619  -0.002  0.00  0.00    +0.000 N 
ENDROOT
BRANCH   2   6
ATOM      6  C   UNL     1       4.899   1.742   0.803  0.00  0.00    +0.000 C 
ATOM      7  O   UNL     1       5.194   0.792   1.504  0.00  0.00    +0.000 OA
ATOM      8  N   UNL     1       5.842   2.636   0.448  0.00  0.00    +0.000 N 
ATOM      9  H   UNL     1       5.591   3.440  -0.145  0.00  0.00    +0.000 HD
ATOM     10  H   UNL     1       6.813   2.516   0.770  0.00  0.00    +0.000 HD
ENDBRANCH   2   6
BRANCH   5  11
ATOM     11  C1* UNL     1      -0.013   1.086   0.008  0.00  0.00    +0.000 C 
ATOM     12  C2* UNL     1      -0.796   1.614   1.237  0.00  0.00    +0.000 C 
ATOM     13  C3* UNL     1      -2.264   1.501   0.759  0.00  0.00    +0.000 C 
ATOM     14  C4* UNL     1      -2.159   1.459  -0.778  0.00  0.00    +0.000 C 
ATOM     15  O4* UNL     1      -0.764   1.590  -1.117  0.00  0.00    +0.000 OA
BRANCH  13  16
ATOM     16  O3* UNL     1      -2.860   0.300   1.252  0.00  0.00    +0.000 OA
ATOM     17  H3* UNL     1      -2.834   0.309   2.242  0.00  0.00    +0.000 HD
ENDBRANCH  13  16
BRANCH  12  18
ATOM     18  O2* UNL     1      -0.567   0.789   2.381  0.00  0.00    +0.000 OA
ATOM     19  H2* UNL     1       0.402   0.784   2.583  0.00  0.00    +0.000 HD
ENDBRANCH  12  18
BRANCH  14  20
ATOM     20  C5* UNL     1      -2.952   2.618  -1.386  0.00  0.00    +0.000 C 
BRANCH  20  21
ATOM     21  O5* UNL     1      -2.945   2.505  -2.810  0.00  0.00    +0.000 OA
ATOM     22  H5* UNL     1      -3.361   1.646  -3.076  0.00  0.00    +0.000 HD
ENDBRANCH  20  21
ENDBRANCH  14  20
ENDBRANCH   5  11
BRANCH   1  24
ATOM     23  C   UNL     1       2.489  -1.094   2.073  0.00  0.00    +0.000 C 
ATOM     24  C   UNL     1       2.467  -0.117   1.423  0.00  0.00    +0.000 C 
BRANCH  23  25
ATOM     25  C   UNL     1       2.516  -2.319   2.889  0.00  0.00    +0.000 C 
BRANCH  25  27
ATOM     26  C   UNL     1       3.967  -3.832   4.250  0.00  0.00    +0.000 C 
ATOM     27  C   UNL     1       3.938  -2.558   3.402  0.00  0.00    +0.000 C 
ENDBRANCH  25  27
ENDBRANCH  23  25
ENDBRANCH   1  24
TORSDOF 9
ENDMDL
MODEL     1162
REMARK  Name = ZINC09287414
REMARK  4 active torsions:
REMARK  status: ('A' for Active; 'I' for Inactive)
REMARK    1  A    between atoms: C_1  and  C_2
REMARK    2  A    between atoms: C_7  and  N_8
REMARK    3  A    between atoms: C_9  and  C_11
REMARK    4  A    between atoms: C_11  and  C_12
REMARK                            x       y       z     vdW  Elec       q    Type
REMARK                         _______ _______ _______ _____ _____    ______ ____
ROOT
ATOM      1  C   UNL     1       5.574   4.644   0.286  0.00  0.00    +0.000 A 
ATOM      2  C   UNL     1       5.387   3.136   0.173  0.00  0.00    +0.000 A 
ATOM      3  O   UNL     1       6.316   2.353   0.167  0.00  0.00    +0.000 OA
ATOM      4  N   UNL     1       4.138   2.759   0.082  0.00  0.00    +0.000 NA
ATOM      5  C   UNL     1       3.108   3.588   0.086  0.00  0.00    +0.000 A 
ATOM      6  S   UNL     1       3.814   5.169   0.223  0.00  0.00    +0.000 S 
ATOM      7  N   UNL     1       1.779   3.271  -0.005  0.00  0.00    +0.000 N 
ATOM      8  C   UNL     1       1.384   1.948  -0.011  0.00  0.00    +0.000 C 
ATOM      9  N   UNL     1       0.047   1.631   0.001  0.00  0.00    +0.000 N 
ATOM     10  N   UNL     1       2.341   1.034  -0.030  0.00  0.00    +0.000 N 
ATOM     11  H   UNL     1       1.075   4.020  -0.069  0.00  0.00    +0.000 HD
ATOM     12  H   UNL     1      -0.660   2.379   0.015  0.00  0.00    +0.000 HD
ATOM     13  H   UNL     1      -0.248   0.644  -0.003  0.00  0.00    +0.000 HD
ATOM     14  H   UNL     1       3.340   1.285  -0.039  0.00  0.00    +0.000 HD
ATOM     15  H   UNL     1       2.071   0.040  -0.035  0.00  0.00    +0.000 HD
ENDROOT
BRANCH   1  16
ATOM     16  C   UNL     1       6.229   5.028   1.615  0.00  0.00    +0.000 C 
BRANCH  16  18
ATOM     17  N   UNL     1       7.083   7.077   2.706  0.00  0.00    +0.000 N 
ATOM     18  C   UNL     1       6.504   6.510   1.629  0.00  0.00    +0.000 C 
ATOM     19  O   UNL     1       6.206   7.192   0.672  0.00  0.00    +0.000 OA
ATOM     20  H   UNL     1       7.259   6.516   3.552  0.00  0.00    +0.000 HD
BRANCH  17  27
ATOM     21  C   UNL     1       7.256   8.477   5.177  0.00  0.00    +0.000 C 
ATOM     22  C   UNL     1       7.540   9.149   3.859  0.00  0.00    +0.000 A 
ATOM     23  C   UNL     1       7.902  10.482   3.826  0.00  0.00    +0.000 A 
ATOM     24  C   UNL     1       8.158  11.101   2.616  0.00  0.00    +0.000 A 
ATOM     25  C   UNL     1       8.057  10.387   1.436  0.00  0.00    +0.000 A 
ATOM     26  C   UNL     1       7.701   9.053   1.463  0.00  0.00    +0.000 A 
ATOM     27  C   UNL     1       7.444   8.429   2.676  0.00  0.00    +0.000 A 
ENDBRANCH  17  27
ENDBRANCH  16  18
ENDBRANCH   1  16
TORSDOF 3
ENDMDL
MODEL     1163
REMARK  Name = ZINC04226437
REMARK  7 active torsions:
REMARK  status: ('A' for Active; 'I' for Inactive)
REMARK    1  A    between atoms: C_1  and  C_2
REMARK    2  A    between atoms: C_4  and  N_13
REMARK    3  A    between atoms: C_7  and  C_11
REMARK    4  A    between atoms: N_13  and  C_14
REMARK    5  A    between atoms: C_14  and  C_15
REMARK    6  A    between atoms: C_15  and  C_16
REMARK    7  A    between atoms: C_16  and  N_24
REMARK                            x       y       z     vdW  Elec       q    Type
REMARK                         _______ _______ _______ _____ _____    ______ ____
ROOT
ATOM      1  C   UNL     1      -7.301   4.165   0.060  0.00  0.00    +0.000 C 
ATOM      2  C   UNL     1      -6.028   3.358   0.049  0.00  0.00    +0.000 A 
ATOM      3  C   UNL     1      -6.109   1.973   0.042  0.00  0.00    +0.000 A 
ATOM      4  C   UNL     1      -4.945   1.219   0.032  0.00  0.00    +0.000 A 
ATOM      5  C   UNL     1      -3.707   1.909   0.030  0.00  0.00    +0.000 A 
ATOM      6  C   UNL     1      -2.492   1.218   0.021  0.00  0.00    +0.000 A 
ATOM      7  C   UNL     1      -1.302   1.931   0.019  0.00  0.00    +0.000 A 
ATOM      8  C   UNL     1      -1.317   3.337   0.032  0.00  0.00    +0.000 A 
ATOM      9  C   UNL     1      -2.489   4.021   0.037  0.00  0.00    +0.000 A 
ATOM     10  C   UNL     1      -3.713   3.325   0.039  0.00  0.00    +0.000 A 
ATOM     11  N   UNL     1      -4.875   4.067   0.048  0.00  0.00    +0.000 N 
ATOM     12  H   UNL     1      -4.866   5.097   0.053  0.00  0.00    +0.000 HD
ENDROOT
BRANCH   7  13
ATOM     13  C   UNL     1      -0.014   1.211   0.009  0.00  0.00    +0.000 C 
ATOM     14  O   UNL     1       0.002  -0.004   0.002  0.00  0.00    +0.000 OA
ATOM     15  O   UNL     1       1.143   1.900   0.001  0.00  0.00    +0.000 OA
ENDBRANCH   7  13
BRANCH   4  16
ATOM     16  N   UNL     1      -4.991  -0.165   0.025  0.00  0.00    +0.000 N 
ATOM     17  H   UNL     1      -4.117  -0.710   0.018  0.00  0.00    +0.000 HD
BRANCH  16  18
ATOM     18  C   UNL     1      -6.284  -0.855   0.027  0.00  0.00    +0.000 C 
BRANCH  18  19
ATOM     19  C   UNL     1      -6.054  -2.368   0.018  0.00  0.00    +0.000 C 
BRANCH  19  20
ATOM     20  C   UNL     1      -7.404  -3.088   0.020  0.00  0.00    +0.000 C 
BRANCH  20  26
ATOM     21  C   UNL     1      -6.566  -4.972  -1.252  0.00  0.00    +0.000 C 
ATOM     22  C   UNL     1      -6.301  -6.479  -1.194  0.00  0.00    +0.000 C 
ATOM     23  O   UNL     1      -7.527  -7.165  -0.929  0.00  0.00    +0.000 OA
ATOM     24  C   UNL     1      -8.156  -6.769   0.293  0.00  0.00    +0.000 C 
ATOM     25  C   UNL     1      -8.440  -5.265   0.251  0.00  0.00    +0.000 C 
ATOM     26  N   UNL     1      -7.167  -4.548   0.030  0.00  0.00    +0.000 NA
ENDBRANCH  20  26
ENDBRANCH  19  20
ENDBRANCH  18  19
ENDBRANCH  16  18
ENDBRANCH   4  16
TORSDOF 6
ENDMDL
MODEL     1164
REMARK  Name = ZINC29496759
REMARK  8 active torsions:
REMARK  status: ('A' for Active; 'I' for Inactive)
REMARK    1  A    between atoms: C_1  and  C_2
REMARK    2  A    between atoms: C_2  and  C_3
REMARK    3  A    between atoms: C_3  and  N_4
REMARK    4  A    between atoms: N_4  and  C_5
REMARK    5  A    between atoms: C_12  and  C_14
REMARK    6  A    between atoms: C_14  and  S_15
REMARK    7  A    between atoms: S_15  and  C_16
REMARK    8  A    between atoms: N_17  and  C_18
REMARK                            x       y       z     vdW  Elec       q    Type
REMARK                         _______ _______ _______ _____ _____    ______ ____
ROOT
ATOM      1  N   UNL     1      -2.816   3.733  -1.434  0.00  0.00    +0.000 N 
ATOM      2  C   UNL     1      -2.034   4.799  -1.696  0.00  0.00    +0.000 C 
ATOM      3  O   UNL     1      -0.894   4.830  -1.284  0.00  0.00    +0.000 OA
ENDROOT
BRANCH   1   4
ATOM      4  C   UNL     1      -2.289   2.612  -0.653  0.00  0.00    +0.000 C 
ATOM      5  C   UNL     1      -1.876   3.112   0.741  0.00  0.00    +0.000 C 
ATOM      6  C   UNL     1      -1.039   1.995   1.430  0.00  0.00    +0.000 C 
ATOM      7  S   UNL     1      -0.017   1.417   0.010  0.00  0.00    +0.000 S 
ATOM      8  O   UNL     1       0.002  -0.004   0.002  0.00  0.00    +0.000 OA
ATOM      9  O   UNL     1       1.210   2.133   0.002  0.00  0.00    +0.000 OA
ATOM     10  C   UNL     1      -1.064   2.009  -1.382  0.00  0.00    +0.000 C 
ENDBRANCH   1   4
BRANCH   1  11
ATOM     11  C   UNL     1      -4.194   3.696  -1.931  0.00  0.00    +0.000 C 
BRANCH  11  13
ATOM     12  C   UNL     1      -6.567   4.276  -1.410  0.00  0.00    +0.000 C 
ATOM     13  C   UNL     1      -5.129   4.315  -0.890  0.00  0.00    +0.000 C 
ENDBRANCH  11  13
ENDBRANCH   1  11
BRANCH   2  14
ATOM     14  C   UNL     1      -2.577   5.953  -2.499  0.00  0.00    +0.000 C 
BRANCH  14  15
ATOM     15  S   UNL     1      -1.296   7.219  -2.678  0.00  0.00    +0.000 S 
BRANCH  15  16
ATOM     16  C   UNL     1      -2.176   8.413  -3.629  0.00  0.00    +0.000 C 
ATOM     17  N   UNL     1      -3.413   8.187  -3.976  0.00  0.00    +0.000 N 
ATOM     18  C   UNL     1      -4.144   9.180  -4.766  0.00  0.00    +0.000 C 
ATOM     19  N   UNL     1      -1.558   9.583  -4.006  0.00  0.00    +0.000 N 
ATOM     20  H   UNL     1      -3.875   7.311  -3.693  0.00  0.00    +0.000 HD
ATOM     21  H   UNL     1      -0.581   9.761  -3.732  0.00  0.00    +0.000 HD
ATOM     22  H   UNL     1      -2.073  10.280  -4.562  0.00  0.00    +0.000 HD
ENDBRANCH  15  16
ENDBRANCH  14  15
ENDBRANCH   2  14
TORSDOF 6
ENDMDL
MODEL     1165
REMARK  Name = ZINC30562576
REMARK  5 active torsions:
REMARK  status: ('A' for Active; 'I' for Inactive)
REMARK    1  A    between atoms: C_2  and  C_18
REMARK    2  A    between atoms: C_7  and  C_9
REMARK    3  A    between atoms: C_9  and  N_10
REMARK    4  A    between atoms: C_11  and  C_13
REMARK    5  A    between atoms: C_18  and  C_19
REMARK                            x       y       z     vdW  Elec       q    Type
REMARK                         _______ _______ _______ _____ _____    ______ ____
ROOT
ATOM      1  C   UNL     1      -1.746   4.974   9.877  0.00  0.00    +0.000 A 
ATOM      2  C   UNL     1      -0.410   5.010  10.100  0.00  0.00    +0.000 A 
ATOM      3  N   UNL     1       0.398   4.602   9.141  0.00  0.00    +0.000 NA
ATOM      4  C   UNL     1      -0.072   4.178   7.985  0.00  0.00    +0.000 A 
ATOM      5  S   UNL     1      -1.788   4.329   8.211  0.00  0.00    +0.000 S 
ATOM      6  N   UNL     1       0.625   3.720   6.873  0.00  0.00    +0.000 N 
ATOM      7  C   UNL     1      -0.046   3.320   5.774  0.00  0.00    +0.000 C 
ATOM      8  O   UNL     1      -1.258   3.359   5.756  0.00  0.00    +0.000 OA
ATOM      9  H   UNL     1       1.654   3.687   6.888  0.00  0.00    +0.000 HD
ENDROOT
BRANCH   7  10
ATOM     10  C   UNL     1       0.710   2.825   4.569  0.00  0.00    +0.000 C 
BRANCH  10  11
ATOM     11  N   UNL     1      -0.239   2.453   3.516  0.00  0.00    +0.000 N 
ATOM     12  C   UNL     1       0.213   1.980   2.338  0.00  0.00    +0.000 C 
ATOM     13  O   UNL     1       1.405   1.861   2.149  0.00  0.00    +0.000 OA
ATOM     14  H   UNL     1      -1.251   2.554   3.676  0.00  0.00    +0.000 HD
BRANCH  12  15
ATOM     15  C   UNL     1      -0.763   1.597   1.255  0.00  0.00    +0.000 C 
ATOM     16  C   UNL     1      -0.013   1.086   0.008  0.00  0.00    +0.000 C 
ATOM     17  C   UNL     1      -0.784   1.609  -1.216  0.00  0.00    +0.000 C 
ATOM     18  C   UNL     1      -1.978   2.421  -0.670  0.00  0.00    +0.000 C 
ATOM     19  C   UNL     1      -1.531   2.845   0.750  0.00  0.00    +0.000 C 
ENDBRANCH  12  15
ENDBRANCH  10  11
ENDBRANCH   7  10
BRANCH   2  20
ATOM     20  C   UNL     1       0.139   5.499  11.415  0.00  0.00    +0.000 C 
BRANCH  20  21
ATOM     21  C   UNL     1       1.040   4.446  12.007  0.00  0.00    +0.000 C 
ATOM     22  O   UNL     1       1.218   3.400  11.418  0.00  0.00    +0.000 OA
ATOM     23  N   UNL     1       1.647   4.665  13.190  0.00  0.00    +0.000 N 
ATOM     24  H   UNL     1       1.496   5.553  13.690  0.00  0.00    +0.000 HD
ATOM     25  H   UNL     1       2.263   3.945  13.594  0.00  0.00    +0.000 HD
ENDBRANCH  20  21
ENDBRANCH   2  20
TORSDOF 5
ENDMDL
MODEL     1166
REMARK  Name = ZINC23369516
REMARK  10 active torsions:
REMARK  status: ('A' for Active; 'I' for Inactive)
REMARK    1  A    between atoms: C_1  and  C_2
REMARK    2  A    between atoms: C_2  and  C_3
REMARK    3  A    between atoms: C_3  and  C_4
REMARK    4  A    between atoms: C_3  and  C_6
REMARK    5  A    between atoms: C_3  and  N_22
REMARK    6  A    between atoms: C_4  and  C_5
REMARK    7  A    between atoms: N_8  and  C_11
REMARK    8  A    between atoms: C_11  and  C_12
REMARK    9  A    between atoms: N_16  and  S_18
REMARK   10  A    between atoms: S_18  and  C_21
REMARK                            x       y       z     vdW  Elec       q    Type
REMARK                         _______ _______ _______ _____ _____    ______ ____
ROOT
ATOM      1  C   UNL     1       6.365   0.447   2.531  0.00  0.00    +0.000 A 
ATOM      2  C   UNL     1       5.127   0.243   3.038  0.00  0.00    +0.000 A 
ATOM      3  N   UNL     1       4.417  -0.370   2.062  0.00  0.00    +0.000 N 
ATOM      4  N   UNL     1       5.182  -0.515   1.037  0.00  0.00    +0.000 NA
ATOM      5  N   UNL     1       6.350  -0.038   1.285  0.00  0.00    +0.000 NA
ENDROOT
BRANCH   1   6
ATOM      6  C   UNL     1       7.530   1.097   3.233  0.00  0.00    +0.000 C 
BRANCH   6   7
ATOM      7  N   UNL     1       7.128   1.488   4.590  0.00  0.00    +0.000 N 
ATOM      8  H   UNL     1       7.924   1.933   5.070  0.00  0.00    +0.000 HD
ATOM      9  H   UNL     1       6.833   0.654   5.116  0.00  0.00    +0.000 HD
ATOM     10  H   UNL     1       6.344   2.155   4.538  0.00  0.00    +0.000 HD
ENDBRANCH   6   7
BRANCH   6  12
ATOM     11  C   UNL     1       9.113  -0.301   1.897  0.00  0.00    +0.000 C 
ATOM     12  C   UNL     1       8.694   0.107   3.311  0.00  0.00    +0.000 C 
ENDBRANCH   6  12
BRANCH   6  13
ATOM     13  C   UNL     1       7.967   2.338   2.452  0.00  0.00    +0.000 C 
ATOM     14  C   UNL     1       9.150   2.998   3.164  0.00  0.00    +0.000 C 
ENDBRANCH   6  13
ENDBRANCH   1   6
BRANCH   3  15
ATOM     15  C   UNL     1       3.016  -0.790   2.155  0.00  0.00    +0.000 C 
BRANCH  15  16
ATOM     16  C   UNL     1       2.220  -0.169   1.005  0.00  0.00    +0.000 C 
ATOM     17  C   UNL     1       2.194   1.353   1.166  0.00  0.00    +0.000 C 
ATOM     18  C   UNL     1       1.426   1.978  -0.001  0.00  0.00    +0.000 C 
ATOM     19  C   UNL     1      -0.018   1.465   0.010  0.00  0.00    +0.000 C 
ATOM     20  N   UNL     1       0.002  -0.004   0.002  0.00  0.00    +0.000 NA
ATOM     21  C   UNL     1       0.786  -0.706   1.028  0.00  0.00    +0.000 C 
BRANCH  20  22
ATOM     22  S   UNL     1      -0.843  -0.853  -1.141  0.00  0.00    +0.000 S 
ATOM     23  O   UNL     1      -1.117  -2.107  -0.532  0.00  0.00    +0.000 OA
ATOM     24  O   UNL     1      -1.903   0.012  -1.526  0.00  0.00    +0.000 OA
ATOM     25  C   UNL     1       0.320  -1.067  -2.517  0.00  0.00    +0.000 C 
ENDBRANCH  20  22
ENDBRANCH  15  16
ENDBRANCH   3  15
TORSDOF 7
ENDMDL
MODEL     1167
REMARK  Name = ZINC06707896
REMARK  8 active torsions:
REMARK  status: ('A' for Active; 'I' for Inactive)
REMARK    1  A    between atoms: C_1  and  C_2
REMARK    2  A    between atoms: C_2  and  C_4
REMARK    3  A    between atoms: N_8  and  C_10
REMARK    4  A    between atoms: C_10  and  C_11
REMARK    5  A    between atoms: C_10  and  C_23
REMARK    6  A    between atoms: C_11  and  C_12
REMARK    7  A    between atoms: C_11  and  C_18
REMARK    8  A    between atoms: C_18  and  C_21
REMARK                            x       y       z     vdW  Elec       q    Type
REMARK                         _______ _______ _______ _____ _____    ______ ____
ROOT
ATOM      1  C   UNL     1      -2.986   2.323  -0.518  0.00  0.00    +0.000 C 
ENDROOT
BRANCH   1   6
ATOM      2  C   UNL     1      -4.465   4.469   2.104  0.00  0.00    +0.000 A 
ATOM      3  C   UNL     1      -3.347   4.748   2.904  0.00  0.00    +0.000 A 
ATOM      4  C   UNL     1      -2.128   4.206   2.537  0.00  0.00    +0.000 A 
ATOM      5  C   UNL     1      -2.051   3.414   1.405  0.00  0.00    +0.000 A 
ATOM      6  N   UNL     1      -3.120   3.168   0.671  0.00  0.00    +0.000 N 
ATOM      7  C   UNL     1      -4.301   3.663   0.973  0.00  0.00    +0.000 A 
BRANCH   2   9
ATOM      8  C   UNL     1      -5.947   5.891   3.665  0.00  0.00    +0.000 C 
ATOM      9  C   UNL     1      -5.787   5.019   2.446  0.00  0.00    +0.000 C 
ATOM     10  O   UNL     1      -6.746   4.771   1.748  0.00  0.00    +0.000 OA
ENDBRANCH   2   9
ENDBRANCH   1   6
BRANCH   1  11
ATOM     11  C   UNL     1      -2.008   2.954  -1.476  0.00  0.00    +0.000 C 
ATOM     12  O   UNL     1      -0.903   2.473  -1.618  0.00  0.00    +0.000 OA
ATOM     13  N   UNL     1      -2.362   4.049  -2.177  0.00  0.00    +0.000 N 
ATOM     14  H   UNL     1      -3.302   4.454  -2.059  0.00  0.00    +0.000 HD
ATOM     15  H   UNL     1      -1.694   4.480  -2.831  0.00  0.00    +0.000 HD
ENDBRANCH   1  11
BRANCH   1  16
ATOM     16  C   UNL     1      -2.477   0.940  -0.107  0.00  0.00    +0.000 C 
BRANCH  16  17
ATOM     17  C   UNL     1      -3.489   0.280   0.794  0.00  0.00    +0.000 A 
ATOM     18  C   UNL     1      -3.143  -0.092   2.084  0.00  0.00    +0.000 A 
ATOM     19  C   UNL     1      -4.107  -0.697   2.877  0.00  0.00    +0.000 A 
ATOM     20  C   UNL     1      -5.370  -0.907   2.358  0.00  0.00    +0.000 A 
ATOM     21  N   UNL     1      -5.663  -0.541   1.126  0.00  0.00    +0.000 NA
ATOM     22  C   UNL     1      -4.774   0.042   0.346  0.00  0.00    +0.000 A 
ENDBRANCH  16  17
BRANCH  16  23
ATOM     23  C   UNL     1      -2.271   0.094  -1.337  0.00  0.00    +0.000 C 
ATOM     24  C   UNL     1      -2.997   0.304  -2.403  0.00  0.00    +0.000 C 
ATOM     25  N   UNL     1      -3.691   0.504  -3.423  0.00  0.00    +0.000 NA
ATOM     26  H   UNL     1      -4.120  -0.290  -3.919  0.00  0.00    +0.000 HD
BRANCH  23  27
ATOM     27  C   UNL     1      -1.280  -0.940  -1.337  0.00  0.00    +0.000 C 
ATOM     28  N   UNL     1      -0.495  -1.761  -1.337  0.00  0.00    +0.000 NA
ENDBRANCH  23  27
ENDBRANCH  16  23
ENDBRANCH   1  16
TORSDOF 7
ENDMDL
MODEL     1168
REMARK  Name = ZINC06078676
REMARK  9 active torsions:
REMARK  status: ('A' for Active; 'I' for Inactive)
REMARK    1  A    between atoms: C_1  and  C_2
REMARK    2  A    between atoms: N_5  and  N_21
REMARK    3  A    between atoms: C_6  and  S_9
REMARK    4  A    between atoms: S_9  and  C_10
REMARK    5  A    between atoms: C_10  and  C_11
REMARK    6  A    between atoms: C_11  and  O_12
REMARK    7  A    between atoms: O_12  and  C_13
REMARK    8  A    between atoms: C_16  and  O_19
REMARK    9  A    between atoms: O_19  and  C_20
REMARK                            x       y       z     vdW  Elec       q    Type
REMARK                         _______ _______ _______ _____ _____    ______ ____
ROOT
ATOM      1  S   UNL     1      -0.022   1.758   0.012  0.00  0.00    +0.000 S 
ENDROOT
BRANCH   1   7
ATOM      2  C   UNL     1       0.253  -4.174  -0.022  0.00  0.00    +0.000 C 
ATOM      3  C   UNL     1       0.144  -2.671  -0.014  0.00  0.00    +0.000 A 
ATOM      4  C   UNL     1      -1.124  -2.050   0.002  0.00  0.00    +0.000 A 
ATOM      5  O   UNL     1      -2.147  -2.713   0.008  0.00  0.00    +0.000 OA
ATOM      6  N   UNL     1      -1.171  -0.697   0.009  0.00  0.00    +0.000 N 
ATOM      7  C   UNL     1       0.002  -0.004   0.002  0.00  0.00    +0.000 A 
ATOM      8  N   UNL     1       1.159  -0.646  -0.018  0.00  0.00    +0.000 NA
ATOM      9  N   UNL     1       1.226  -1.929  -0.020  0.00  0.00    +0.000 NA
BRANCH   6  10
ATOM     10  N   UNL     1      -2.370  -0.042   0.024  0.00  0.00    +0.000 N 
ATOM     11  H   UNL     1      -3.245  -0.585   0.029  0.00  0.00    +0.000 HD
ATOM     12  H   UNL     1      -2.400   0.988   0.030  0.00  0.00    +0.000 HD
ENDBRANCH   6  10
ENDBRANCH   1   7
BRANCH   1  13
ATOM     13  C   UNL     1       1.756   2.096  -0.004  0.00  0.00    +0.000 C 
BRANCH  13  14
ATOM     14  C   UNL     1       1.987   3.609   0.003  0.00  0.00    +0.000 C 
BRANCH  14  15
ATOM     15  O   UNL     1       3.391   3.876  -0.009  0.00  0.00    +0.000 OA
BRANCH  15  16
ATOM     16  C   UNL     1       3.771   5.182  -0.006  0.00  0.00    +0.000 A 
ATOM     17  C   UNL     1       2.812   6.183   0.003  0.00  0.00    +0.000 A 
ATOM     18  C   UNL     1       3.197   7.509   0.011  0.00  0.00    +0.000 A 
ATOM     19  C   UNL     1       4.544   7.840  -0.000  0.00  0.00    +0.000 A 
ATOM     20  C   UNL     1       5.504   6.838  -0.014  0.00  0.00    +0.000 A 
ATOM     21  C   UNL     1       5.118   5.512  -0.017  0.00  0.00    +0.000 A 
BRANCH  19  22
ATOM     22  O   UNL     1       4.924   9.145   0.003  0.00  0.00    +0.000 OA
ATOM     23  C   UNL     1       3.883  10.124   0.018  0.00  0.00    +0.000 C 
ENDBRANCH  19  22
ENDBRANCH  15  16
ENDBRANCH  14  15
ENDBRANCH  13  14
ENDBRANCH   1  13
TORSDOF 7
ENDMDL
MODEL     1169
REMARK  Name = ZINC06499527
REMARK  9 active torsions:
REMARK  status: ('A' for Active; 'I' for Inactive)
REMARK    1  A    between atoms: C_1  and  C_2
REMARK    2  A    between atoms: C_2  and  O_3
REMARK    3  A    between atoms: O_3  and  C_4
REMARK    4  A    between atoms: C_4  and  C_6
REMARK    5  A    between atoms: C_7  and  C_23
REMARK    6  A    between atoms: C_9  and  C_12
REMARK    7  A    between atoms: C_10  and  O_11
REMARK    8  A    between atoms: C_13  and  C_14
REMARK    9  A    between atoms: C_13  and  C_16
REMARK                            x       y       z     vdW  Elec       q    Type
REMARK                         _______ _______ _______ _____ _____    ______ ____
ROOT
ATOM      1  C   UNL     1      -0.957  -1.931  -0.325  0.00  0.00    +0.000 A 
ATOM      2  C   UNL     1      -0.456  -2.955  -1.107  0.00  0.00    +0.000 A 
ATOM      3  N   UNL     1      -0.768  -4.132  -0.540  0.00  0.00    +0.000 N 
ATOM      4  C   UNL     1      -1.480  -3.904   0.625  0.00  0.00    +0.000 A 
ATOM      5  C   UNL     1      -1.606  -2.529   0.784  0.00  0.00    +0.000 A 
ATOM      6  C   UNL     1       0.316  -2.780  -2.390  0.00  0.00    +0.000 C 
ATOM      7  H   UNL     1      -0.517  -5.059  -0.913  0.00  0.00    +0.000 HD
ENDROOT
BRANCH   1   8
ATOM      8  C   UNL     1      -0.834  -0.490  -0.591  0.00  0.00    +0.000 C 
ATOM      9  O   UNL     1      -1.684   0.082  -1.246  0.00  0.00    +0.000 OA
BRANCH   8  10
ATOM     10  O   UNL     1       0.220   0.197  -0.108  0.00  0.00    +0.000 OA
BRANCH  10  12
ATOM     11  C   UNL     1       1.534   2.221   0.217  0.00  0.00    +0.000 C 
ATOM     12  C   UNL     1       0.276   1.616  -0.410  0.00  0.00    +0.000 C 
ENDBRANCH  10  12
ENDBRANCH   8  10
ENDBRANCH   1   8
BRANCH   4  13
ATOM     13  C   UNL     1      -1.981  -4.886   1.494  0.00  0.00    +0.000 C 
ATOM     14  C   UNL     1      -2.070  -6.204   1.074  0.00  0.00    +0.000 C 
BRANCH  14  15
ATOM     15  C   UNL     1      -1.709  -6.561  -0.308  0.00  0.00    +0.000 C 
ATOM     16  N   UNL     1      -0.612  -7.363  -0.549  0.00  0.00    +0.000 N 
ATOM     17  C   UNL     1      -0.307  -7.841  -1.907  0.00  0.00    +0.000 C 
ATOM     18  C   UNL     1       1.168  -7.528  -2.205  0.00  0.00    +0.000 C 
ATOM     19  O   UNL     1       1.980  -8.050  -1.152  0.00  0.00    +0.000 OA
ATOM     20  C   UNL     1       1.726  -7.466   0.128  0.00  0.00    +0.000 C 
ATOM     21  C   UNL     1       0.283  -7.772   0.545  0.00  0.00    +0.000 C 
ATOM     22  N   UNL     1      -2.474  -6.073  -1.279  0.00  0.00    +0.000 NA
ATOM     23  H   UNL     1      -3.287  -5.471  -1.088  0.00  0.00    +0.000 HD
ENDBRANCH  14  15
BRANCH  14  24
ATOM     24  C   UNL     1      -2.512  -7.218   1.983  0.00  0.00    +0.000 C 
ATOM     25  N   UNL     1      -2.862  -8.022   2.704  0.00  0.00    +0.000 NA
ENDBRANCH  14  24
ENDBRANCH   4  13
BRANCH   5  26
ATOM     26  O   UNL     1      -2.231  -1.884   1.800  0.00  0.00    +0.000 OA
ATOM     27  H   UNL     1      -2.871  -1.308   1.313  0.00  0.00    +0.000 HD
ENDBRANCH   5  26
TORSDOF 7
ENDMDL
MODEL     1170
REMARK  Name = ZINC04154609
REMARK  11 active torsions:
REMARK  status: ('A' for Active; 'I' for Inactive)
REMARK    1  A    between atoms: C_4  and  C_7
REMARK    2  A    between atoms: C_10  and  C_12
REMARK    3  A    between atoms: C_12  and  C_13
REMARK    4  A    between atoms: C_12  and  O_21
REMARK    5  A    between atoms: C_13  and  C_14
REMARK    6  A    between atoms: C_13  and  O_20
REMARK    7  A    between atoms: C_14  and  C_15
REMARK    8  A    between atoms: C_14  and  O_19
REMARK    9  A    between atoms: C_15  and  C_16
REMARK   10  A    between atoms: C_15  and  O_18
REMARK   11  A    between atoms: C_16  and  O_17
REMARK                            x       y       z     vdW  Elec       q    Type
REMARK                         _______ _______ _______ _____ _____    ______ ____
ROOT
ATOM      1  C   UNL     1      -5.941   4.917   1.343  0.00  0.00    +0.000 C 
ENDROOT
BRANCH   1   5
ATOM      2  C   UNL     1      -2.522   3.870   0.045  0.00  0.00    +0.000 C 
ATOM      3  N   UNL     1      -2.716   5.155   0.053  0.00  0.00    +0.000 NA
ATOM      4  N   UNL     1      -3.968   5.729   0.067  0.00  0.00    +0.000 N 
ATOM      5  C   UNL     1      -5.100   4.775   0.073  0.00  0.00    +0.000 C 
ATOM      6  S   UNL     1      -4.171   3.186   0.051  0.00  0.00    +0.000 S 
ATOM      7  H   UNL     1      -4.107   6.749   0.073  0.00  0.00    +0.000 HD
BRANCH   2  11
ATOM      8  C   UNL     1       1.177   1.782   0.000  0.00  0.00    +0.000 A 
ATOM      9  C   UNL     1      -0.013   1.076   0.008  0.00  0.00    +0.000 A 
ATOM     10  C   UNL     1      -1.217   1.748   0.017  0.00  0.00    +0.000 A 
ATOM     11  C   UNL     1      -1.234   3.143   0.030  0.00  0.00    +0.000 A 
ATOM     12  C   UNL     1      -0.031   3.850   0.022  0.00  0.00    +0.000 A 
ATOM     13  C   UNL     1       1.167   3.166   0.007  0.00  0.00    +0.000 A 
ENDBRANCH   2  11
ENDBRANCH   1   5
BRANCH   1  14
ATOM     14  O   UNL     1      -5.124   4.659   2.487  0.00  0.00    +0.000 OA
ATOM     15  H   UNL     1      -4.376   5.308   2.512  0.00  0.00    +0.000 HD
ENDBRANCH   1  14
BRANCH   1  16
ATOM     16  C   UNL     1      -7.096   3.914   1.305  0.00  0.00    +0.000 C 
BRANCH  16  17
ATOM     17  O   UNL     1      -7.913   4.172   0.162  0.00  0.00    +0.000 OA
ATOM     18  H   UNL     1      -7.370   4.080  -0.661  0.00  0.00    +0.000 HD
ENDBRANCH  16  17
BRANCH  16  19
ATOM     19  C   UNL     1      -7.937   4.056   2.576  0.00  0.00    +0.000 C 
BRANCH  19  20
ATOM     20  O   UNL     1      -7.119   3.799   3.719  0.00  0.00    +0.000 OA
ATOM     21  H   UNL     1      -6.372   4.447   3.745  0.00  0.00    +0.000 HD
ENDBRANCH  19  20
BRANCH  19  22
ATOM     22  C   UNL     1      -9.091   3.053   2.538  0.00  0.00    +0.000 C 
BRANCH  22  23
ATOM     23  O   UNL     1      -9.909   3.311   1.394  0.00  0.00    +0.000 OA
ATOM     24  H   UNL     1      -9.365   3.219   0.572  0.00  0.00    +0.000 HD
ENDBRANCH  22  23
BRANCH  22  25
ATOM     25  C   UNL     1      -9.932   3.195   3.808  0.00  0.00    +0.000 C 
BRANCH  25  26
ATOM     26  O   UNL     1     -10.940   2.183   3.828  0.00  0.00    +0.000 OA
ATOM     27  H   UNL     1     -10.513   1.290   3.814  0.00  0.00    +0.000 HD
ENDBRANCH  25  26
ENDBRANCH  22  25
ENDBRANCH  19  22
ENDBRANCH  16  19
ENDBRANCH   1  16
TORSDOF 11
ENDMDL
MODEL     1171
REMARK  Name = ZINC23960382
REMARK  7 active torsions:
REMARK  status: ('A' for Active; 'I' for Inactive)
REMARK    1  A    between atoms: C_1  and  N_2
REMARK    2  A    between atoms: C_5  and  N_6
REMARK    3  A    between atoms: N_6  and  O_7
REMARK    4  A    between atoms: O_7  and  C_8
REMARK    5  A    between atoms: C_8  and  C_9
REMARK    6  A    between atoms: C_9  and  O_10
REMARK    7  A    between atoms: N_16  and  C_19
REMARK                            x       y       z     vdW  Elec       q    Type
REMARK                         _______ _______ _______ _____ _____    ______ ____
ROOT
ATOM      1  C   UNL     1      -2.328  -0.518  -0.491  0.00  0.00    +0.000 C 
ATOM      2  N   UNL     1      -2.367   0.911  -0.170  0.00  0.00    +0.000 N 
ATOM      3  C   UNL     1      -1.199   1.591   0.057  0.00  0.00    +0.000 A 
ATOM      4  C   UNL     1      -1.263   2.949   0.361  0.00  0.00    +0.000 A 
ATOM      5  C   UNL     1      -0.002   3.675   0.604  0.00  0.00    +0.000 A 
ATOM      6  C   UNL     1       1.246   2.974   0.240  0.00  0.00    +0.000 A 
ATOM      7  C   UNL     1       1.186   1.662  -0.041  0.00  0.00    +0.000 A 
ATOM      8  N   UNL     1       0.008   0.966   0.006  0.00  0.00    +0.000 NA
ATOM      9  C   UNL     1      -2.522   3.589   0.423  0.00  0.00    +0.000 A 
ATOM     10  O   UNL     1      -2.602   4.776   0.685  0.00  0.00    +0.000 OA
ATOM     11  N   UNL     1      -3.634   2.860   0.186  0.00  0.00    +0.000 N 
ATOM     12  C   UNL     1      -3.549   1.551  -0.104  0.00  0.00    +0.000 A 
ATOM     13  O   UNL     1      -4.570   0.925  -0.314  0.00  0.00    +0.000 OA
ATOM     14  C   UNL     1      -4.948   3.504   0.246  0.00  0.00    +0.000 C 
ENDROOT
BRANCH   5  15
ATOM     15  N   UNL     1       0.010   4.884   1.118  0.00  0.00    +0.000 N 
ATOM     16  H   UNL     1       0.819   5.502   0.961  0.00  0.00    +0.000 HD
BRANCH  15  17
ATOM     17  O   UNL     1      -1.088   5.337   1.888  0.00  0.00    +0.000 OA
BRANCH  17  18
ATOM     18  C   UNL     1      -0.940   6.669   2.383  0.00  0.00    +0.000 C 
BRANCH  18  19
ATOM     19  C   UNL     1      -2.179   7.051   3.196  0.00  0.00    +0.000 C 
BRANCH  19  20
ATOM     20  O   UNL     1      -2.261   6.223   4.357  0.00  0.00    +0.000 OA
ATOM     21  H   UNL     1      -1.451   6.350   4.912  0.00  0.00    +0.000 HD
ENDBRANCH  19  20
ENDBRANCH  18  19
ENDBRANCH  17  18
ENDBRANCH  15  17
ENDBRANCH   5  15
TORSDOF 5
ENDMDL
MODEL     1172
REMARK  Name = ZINC06523855
REMARK  3 active torsions:
REMARK  status: ('A' for Active; 'I' for Inactive)
REMARK    1  A    between atoms: N_6  and  N_7
REMARK    2  A    between atoms: N_12  and  N_13
REMARK    3  A    between atoms: N_14  and  N_15
REMARK                            x       y       z     vdW  Elec       q    Type
REMARK                         _______ _______ _______ _____ _____    ______ ____
ROOT
ATOM      1  C   UNL     1       2.096   0.649  -0.271  0.00  0.00    +0.000 C 
ATOM      2  C   UNL     1       1.177   1.841   0.001  0.00  0.00    +0.000 C 
ATOM      3  N   UNL     1      -0.016   1.340   0.009  0.00  0.00    +0.000 NA
ATOM      4  C   UNL     1       0.002  -0.004   0.002  0.00  0.00    +0.000 C 
ATOM      5  N   UNL     1       1.218  -0.495  -0.086  0.00  0.00    +0.000 NA
ATOM      6  N   UNL     1      -1.134  -0.785   0.079  0.00  0.00    +0.000 N 
ATOM      7  N   UNL     1       1.713   3.039   0.215  0.00  0.00    +0.000 NA
ATOM      8  C   UNL     1       2.967   3.077   0.668  0.00  0.00    +0.000 C 
ATOM      9  N   UNL     1       3.629   1.971   1.034  0.00  0.00    +0.000 NA
ATOM     10  C   UNL     1       3.255   0.758   0.672  0.00  0.00    +0.000 C 
ATOM     11  N   UNL     1       3.891  -0.340   1.133  0.00  0.00    +0.000 N 
ATOM     12  N   UNL     1       3.601   4.288   0.762  0.00  0.00    +0.000 N 
ATOM     13  H   UNL     1      -2.061  -0.340   0.146  0.00  0.00    +0.000 HD
ATOM     14  H   UNL     1       3.582  -1.277   0.837  0.00  0.00    +0.000 HD
ATOM     15  H   UNL     1       4.569   4.337   1.109  0.00  0.00    +0.000 HD
ENDROOT
BRANCH   6  16
ATOM     16  N   UNL     1      -1.029  -2.147   0.066  0.00  0.00    +0.000 NA
ATOM     17  H   UNL     1      -0.402  -2.372   0.851  0.00  0.00    +0.000 HD
ATOM     18  H   UNL     1      -0.518  -2.365  -0.802  0.00  0.00    +0.000 HD
ENDBRANCH   6  16
BRANCH  11  19
ATOM     19  N   UNL     1       4.945  -0.209   1.992  0.00  0.00    +0.000 NA
ATOM     20  H   UNL     1       4.576   0.333   2.787  0.00  0.00    +0.000 HD
ATOM     21  H   UNL     1       5.618   0.396   1.499  0.00  0.00    +0.000 HD
ENDBRANCH  11  19
BRANCH  12  22
ATOM     22  N   UNL     1       2.948   5.430   0.395  0.00  0.00    +0.000 NA
ATOM     23  H   UNL     1       2.092   5.444   0.968  0.00  0.00    +0.000 HD
ATOM     24  H   UNL     1       2.656   5.269  -0.580  0.00  0.00    +0.000 HD
ENDBRANCH  12  22
TORSDOF 3
ENDMDL
MODEL     1173
REMARK  Name = ZINC19944023
REMARK  7 active torsions:
REMARK  status: ('A' for Active; 'I' for Inactive)
REMARK    1  A    between atoms: C_2  and  N_17
REMARK    2  A    between atoms: C_9  and  N_15
REMARK    3  A    between atoms: C_10  and  C_13
REMARK    4  A    between atoms: N_11  and  O_12
REMARK    5  A    between atoms: N_17  and  C_18
REMARK    6  A    between atoms: C_18  and  C_19
REMARK    7  A    between atoms: C_19  and  O_20
REMARK                            x       y       z     vdW  Elec       q    Type
REMARK                         _______ _______ _______ _____ _____    ______ ____
ROOT
ATOM      1  C   UNL     1      -0.059   5.539   0.029  0.00  0.00    +0.000 A 
ATOM      2  C   UNL     1      -1.283   6.188   0.044  0.00  0.00    +0.000 A 
ATOM      3  C   UNL     1      -2.475   5.453   0.051  0.00  0.00    +0.000 A 
ATOM      4  C   UNL     1      -2.450   4.091   0.045  0.00  0.00    +0.000 A 
ATOM      5  C   UNL     1      -1.220   3.411   0.031  0.00  0.00    +0.000 A 
ATOM      6  C   UNL     1      -0.015   4.150   0.023  0.00  0.00    +0.000 A 
ATOM      7  N   UNL     1       1.188   3.486   0.009  0.00  0.00    +0.000 N 
ATOM      8  O   UNL     1       2.405   4.209   0.001  0.00  0.00    +0.000 OA
ATOM      9  C   UNL     1       1.196   2.140   0.002  0.00  0.00    +0.000 C 
ATOM     10  C   UNL     1      -0.017   1.428   0.010  0.00  0.00    +0.000 C 
ATOM     11  N   UNL     1      -1.182   2.069   0.019  0.00  0.00    +0.000 N 
ATOM     12  F   UNL     1      -3.660   6.101   0.065  0.00  0.00    +0.000 F 
ENDROOT
BRANCH   9  13
ATOM     13  N   UNL     1       2.385   1.464  -0.012  0.00  0.00    +0.000 N 
ATOM     14  H   UNL     1       3.274   1.985  -0.018  0.00  0.00    +0.000 HD
ATOM     15  H   UNL     1       2.392   0.434  -0.017  0.00  0.00    +0.000 HD
ENDBRANCH   9  13
BRANCH  10  16
ATOM     16  C   UNL     1       0.002  -0.004   0.002  0.00  0.00    +0.000 C 
ATOM     17  N   UNL     1       0.018  -1.140  -0.004  0.00  0.00    +0.000 NA
ENDBRANCH  10  16
BRANCH  11  18
ATOM     18  O   UNL     1      -2.221   1.435   0.021  0.00  0.00    +0.000 OA
ATOM     19  H   UNL     1      -2.721   1.760  -0.769  0.00  0.00    +0.000 HD
ENDBRANCH  11  18
BRANCH   2  20
ATOM     20  N   UNL     1      -1.328   7.579   0.050  0.00  0.00    +0.000 N 
ATOM     21  H   UNL     1      -2.236   8.064   0.061  0.00  0.00    +0.000 HD
BRANCH  20  22
ATOM     22  C   UNL     1      -0.083   8.352   0.042  0.00  0.00    +0.000 C 
BRANCH  22  23
ATOM     23  C   UNL     1      -0.411   9.846   0.051  0.00  0.00    +0.000 C 
BRANCH  23  24
ATOM     24  O   UNL     1      -1.058  10.184   1.280  0.00  0.00    +0.000 OA
ATOM     25  H   UNL     1      -0.458   9.974   2.039  0.00  0.00    +0.000 HD
ENDBRANCH  23  24
ENDBRANCH  22  23
ENDBRANCH  20  22
ENDBRANCH   2  20
TORSDOF 7
ENDMDL
MODEL     1174
REMARK  Name = ZINC17062402
REMARK  7 active torsions:
REMARK  status: ('A' for Active; 'I' for Inactive)
REMARK    1  A    between atoms: C_3  and  N_19
REMARK    2  A    between atoms: N_8  and  C1*_10
REMARK    3  A    between atoms: C2*_11  and  O2*_18
REMARK    4  A    between atoms: C3*_12  and  O3*_17
REMARK    5  A    between atoms: C4*_13  and  C5*_15
REMARK    6  A    between atoms: C5*_15  and  O5*_16
REMARK    7  A    between atoms: N_19  and  N_20
REMARK                            x       y       z     vdW  Elec       q    Type
REMARK                         _______ _______ _______ _____ _____    ______ ____
ROOT
ATOM      1  C   UNL     1       2.810  -0.352  -0.026  0.00  0.00    +0.000 A 
ATOM      2  C   UNL     1       2.414   1.002  -0.016  0.00  0.00    +0.000 A 
ATOM      3  C   UNL     1       1.175   1.673  -0.000  0.00  0.00    +0.000 A 
ATOM      4  N   UNL     1       1.176   3.001   0.001  0.00  0.00    +0.000 N 
ATOM      5  C   UNL     1       2.307   3.685  -0.001  0.00  0.00    +0.000 A 
ATOM      6  N   UNL     1       3.487   3.104  -0.015  0.00  0.00    +0.000 NA
ATOM      7  C   UNL     1       3.591   1.776  -0.023  0.00  0.00    +0.000 A 
ATOM      8  N   UNL     1       4.633   0.898  -0.037  0.00  0.00    +0.000 N 
ATOM      9  N   UNL     1       4.112  -0.402  -0.038  0.00  0.00    +0.000 NA
ATOM     10  H   UNL     1       0.279   3.507   0.005  0.00  0.00    +0.000 HD
ENDROOT
BRANCH   8  11
ATOM     11  C1* UNL     1       6.055   1.252  -0.049  0.00  0.00    +0.000 C 
ATOM     12  C2* UNL     1       6.689   0.975   1.332  0.00  0.00    +0.000 C 
ATOM     13  C3* UNL     1       8.105   0.452   0.995  0.00  0.00    +0.000 C 
ATOM     14  C4* UNL     1       8.158   0.479  -0.549  0.00  0.00    +0.000 C 
ATOM     15  O4* UNL     1       6.777   0.403  -0.967  0.00  0.00    +0.000 OA
BRANCH  12  16
ATOM     16  O2* UNL     1       5.943  -0.020   2.036  0.00  0.00    +0.000 OA
ATOM     17  H2* UNL     1       5.934  -0.854   1.502  0.00  0.00    +0.000 HD
ENDBRANCH  12  16
BRANCH  13  18
ATOM     18  O3* UNL     1       9.103   1.315   1.545  0.00  0.00    +0.000 OA
ATOM     19  H3* UNL     1       8.990   1.353   2.528  0.00  0.00    +0.000 HD
ENDBRANCH  13  18
BRANCH  14  20
ATOM     20  C5* UNL     1       8.942  -0.723  -1.079  0.00  0.00    +0.000 C 
BRANCH  20  21
ATOM     21  O5* UNL     1       9.015  -0.654  -2.504  0.00  0.00    +0.000 OA
ATOM     22  H5* UNL     1       9.473   0.182  -2.772  0.00  0.00    +0.000 HD
ENDBRANCH  20  21
ENDBRANCH  14  20
ENDBRANCH   8  11
BRANCH   3  23
ATOM     23  N   UNL     1      -0.011   0.966   0.007  0.00  0.00    +0.000 N 
ATOM     24  H   UNL     1       0.003  -0.064   0.006  0.00  0.00    +0.000 HD
BRANCH  23  25
ATOM     25  N   UNL     1      -1.203   1.633   0.017  0.00  0.00    +0.000 NA
ATOM     26  H   UNL     1      -1.172   2.245  -0.811  0.00  0.00    +0.000 HD
ATOM     27  H   UNL     1      -1.160   2.243   0.845  0.00  0.00    +0.000 HD
ENDBRANCH  23  25
ENDBRANCH   3  23
TORSDOF 7
ENDMDL
MODEL     1175
REMARK  Name = ZINC31687708
REMARK  4 active torsions:
REMARK  status: ('A' for Active; 'I' for Inactive)
REMARK    1  A    between atoms: C_1  and  N_2
REMARK    2  A    between atoms: C_3  and  N_11
REMARK    3  A    between atoms: N_7  and  C_10
REMARK    4  A    between atoms: C_12  and  N_14
REMARK                            x       y       z     vdW  Elec       q    Type
REMARK                         _______ _______ _______ _____ _____    ______ ____
ROOT
ATOM      1  N   UNL     1      -2.615   2.923   4.532  0.00  0.00    +0.000 N 
ATOM      2  C   UNL     1      -2.197   2.567   5.742  0.00  0.00    +0.000 C 
ATOM      3  N   UNL     1      -1.070   1.796   5.880  0.00  0.00    +0.000 N 
ATOM      4  H   UNL     1      -3.394   3.588   4.431  0.00  0.00    +0.000 HD
ATOM      5  H   UNL     1      -0.547   1.493   5.046  0.00  0.00    +0.000 HD
ATOM      6  H   UNL     1      -0.746   1.519   6.819  0.00  0.00    +0.000 HD
ENDROOT
BRANCH   1   9
ATOM      7  C   UNL     1      -1.486   4.704   2.698  0.00  0.00    +0.000 C 
ATOM      8  N   UNL     1      -1.447   3.253   2.504  0.00  0.00    +0.000 N 
ATOM      9  C   UNL     1      -2.021   2.416   3.442  0.00  0.00    +0.000 A 
ATOM     10  C   UNL     1      -1.973   1.042   3.240  0.00  0.00    +0.000 A 
ATOM     11  C   UNL     1      -1.344   0.551   2.092  0.00  0.00    +0.000 A 
ATOM     12  O   UNL     1      -1.288  -0.651   1.891  0.00  0.00    +0.000 OA
ATOM     13  N   UNL     1      -0.800   1.410   1.208  0.00  0.00    +0.000 N 
ATOM     14  C   UNL     1      -0.847   2.737   1.415  0.00  0.00    +0.000 A 
ATOM     15  O   UNL     1      -0.343   3.486   0.601  0.00  0.00    +0.000 OA
ATOM     16  C   UNL     1      -0.142   0.889   0.007  0.00  0.00    +0.000 C 
ENDBRANCH   1   9
BRANCH   2  17
ATOM     17  N   UNL     1      -2.877   2.960   6.828  0.00  0.00    +0.000 NA
ATOM     18  C   UNL     1      -4.121   2.547   7.015  0.00  0.00    +0.000 C 
ATOM     19  N   UNL     1      -4.673   1.635   6.164  0.00  0.00    +0.000 N 
ATOM     20  N   UNL     1      -4.851   3.034   8.060  0.00  0.00    +0.000 N 
ATOM     21  H   UNL     1      -4.121   1.267   5.376  0.00  0.00    +0.000 HD
ATOM     22  H   UNL     1      -5.640   1.313   6.310  0.00  0.00    +0.000 HD
ATOM     23  H   UNL     1      -4.435   3.723   8.703  0.00  0.00    +0.000 HD
ATOM     24  H   UNL     1      -5.819   2.713   8.206  0.00  0.00    +0.000 HD
ENDBRANCH   2  17
TORSDOF 2
ENDMDL
MODEL     1176
REMARK  Name = ZINC12503891
REMARK  5 active torsions:
REMARK  status: ('A' for Active; 'I' for Inactive)
REMARK    1  A    between atoms: C_4  and  C_11
REMARK    2  A    between atoms: C_12  and  O_18
REMARK    3  A    between atoms: C_13  and  O_17
REMARK    4  A    between atoms: C_14  and  C_15
REMARK    5  A    between atoms: C_15  and  O_16
REMARK                            x       y       z     vdW  Elec       q    Type
REMARK                         _______ _______ _______ _____ _____    ______ ____
ROOT
ATOM      1  C   UNK     1       3.687   3.623  -0.014  0.00  0.00    +0.000 C 
ATOM      2  C   UNK     1       4.377   4.211   1.236  0.00  0.00    +0.000 C 
ATOM      3  C   UNK     1       5.754   4.698   0.741  0.00  0.00    +0.000 C 
ATOM      4  C   UNK     1       5.780   4.364  -0.766  0.00  0.00    +0.000 C 
ATOM      5  N   UNK     1       4.365   4.286  -1.129  0.00  0.00    +0.000 N 
ATOM      6  H   UNK     1       4.254   3.728  -1.987  0.00  0.00    +0.000 HD
ATOM      7  H   UNK     1       3.984   5.234  -1.258  0.00  0.00    +0.000 HD
ENDROOT
BRANCH   1  11
ATOM      8  C   UNK     1      -0.013   1.076   0.008  0.00  0.00    +0.000 A 
ATOM      9  N   UNK     1       1.132   1.696   0.000  0.00  0.00    +0.000 NA
ATOM     10  C   UNK     1       1.192   3.056   0.007  0.00  0.00    +0.000 A 
ATOM     11  C   UNK     1       2.213   3.940   0.002  0.00  0.00    +0.000 C 
ATOM     12  C   UNK     1       1.577   5.313   0.015  0.00  0.00    +0.000 C 
ATOM     13  N   UNK     1       0.127   5.082   0.028  0.00  0.00    +0.000 NA
ATOM     14  C   UNK     1      -0.088   3.801   0.023  0.00  0.00    +0.000 A 
ATOM     15  C   UNK     1      -1.327   2.986   0.031  0.00  0.00    +0.000 A 
ATOM     16  N   UNK     1      -1.198   1.677   0.017  0.00  0.00    +0.000 NA
ATOM     17  O   UNK     1      -2.547   3.568   0.045  0.00  0.00    +0.000 OA
ENDBRANCH   1  11
BRANCH   3  18
ATOM     18  O   UNK     1       5.883   6.107   0.940  0.00  0.00    +0.000 OA
ATOM     19  H   UNK     1       5.788   6.309   1.904  0.00  0.00    +0.000 HD
ENDBRANCH   3  18
BRANCH   2  20
ATOM     20  O   UNK     1       4.537   3.202   2.235  0.00  0.00    +0.000 OA
ATOM     21  H   UNK     1       5.089   2.466   1.868  0.00  0.00    +0.000 HD
ENDBRANCH   2  20
BRANCH   4  22
ATOM     22  C   UNK     1       6.497   5.469  -1.545  0.00  0.00    +0.000 C 
BRANCH  22  23
ATOM     23  O   UNK     1       6.613   5.086  -2.917  0.00  0.00    +0.000 OA
ATOM     24  H   UNK     1       5.710   4.947  -3.299  0.00  0.00    +0.000 HD
ENDBRANCH  22  23
ENDBRANCH   4  22
TORSDOF 5
ENDMDL
MODEL     1177
REMARK  Name = ZINC17107909
REMARK  5 active torsions:
REMARK  status: ('A' for Active; 'I' for Inactive)
REMARK    1  A    between atoms: C_1  and  C_2
REMARK    2  A    between atoms: C_2  and  O_4
REMARK    3  A    between atoms: O_4  and  C_5
REMARK    4  A    between atoms: C_6  and  C_18
REMARK    5  A    between atoms: C_18  and  O_19
REMARK                            x       y       z     vdW  Elec       q    Type
REMARK                         _______ _______ _______ _____ _____    ______ ____
ROOT
ATOM      1  C   UNL     1      -0.096   1.012  -2.524  0.00  0.00    +0.000 C 
ATOM      2  C   UNL     1      -0.753   1.593  -1.232  0.00  0.00    +0.000 C 
ATOM      3  O   UNL     1      -0.633   3.044  -1.329  0.00  0.00    +0.000 OA
ATOM      4  C   UNL     1      -0.690   3.291  -2.742  0.00  0.00    +0.000 C 
ATOM      5  C   UNL     1       0.431   2.247  -3.171  0.00  0.00    +0.000 C 
ATOM      6  O   UNL     1       0.637   2.625  -4.509  0.00  0.00    +0.000 OA
ATOM      7  C   UNL     1       0.549   3.983  -4.498  0.00  0.00    +0.000 C 
ATOM      8  N   UNL     1       0.914   4.840  -5.428  0.00  0.00    +0.000 NA
ATOM      9  C   UNL     1       0.717   6.157  -5.204  0.00  0.00    +0.000 C 
ATOM     10  N   UNL     1       0.327   6.655  -4.067  0.00  0.00    +0.000 N 
ATOM     11  C   UNL     1       0.135   5.823  -2.870  0.00  0.00    +0.000 C 
ATOM     12  N   UNL     1      -0.016   4.444  -3.311  0.00  0.00    +0.000 N 
ATOM     13  N   UNL     1       0.943   7.030  -6.248  0.00  0.00    +0.000 N 
ATOM     14  H   UNL     1       0.146   7.667  -4.004  0.00  0.00    +0.000 HD
ATOM     15  H   UNL     1       1.253   6.697  -7.172  0.00  0.00    +0.000 HD
ATOM     16  H   UNL     1       0.797   8.039  -6.096  0.00  0.00    +0.000 HD
ENDROOT
BRANCH   1  17
ATOM     17  O   UNL     1       0.982   0.097  -2.194  0.00  0.00    +0.000 OA
BRANCH  17  19
ATOM     18  C   UNL     1       1.730  -2.210  -1.731  0.00  0.00    +0.000 C 
ATOM     19  C   UNL     1       0.663  -1.201  -2.072  0.00  0.00    +0.000 C 
ATOM     20  O   UNL     1      -0.479  -1.561  -2.235  0.00  0.00    +0.000 OA
ENDBRANCH  17  19
ENDBRANCH   1  17
BRANCH   2  21
ATOM     21  C   UNL     1      -0.013   1.086   0.008  0.00  0.00    +0.000 C 
BRANCH  21  22
ATOM     22  O   UNL     1      -0.682   1.547   1.184  0.00  0.00    +0.000 OA
ATOM     23  H   UNL     1      -1.611   1.204   1.192  0.00  0.00    +0.000 HD
ENDBRANCH  21  22
ENDBRANCH   2  21
TORSDOF 4
ENDMDL
MODEL     1178
REMARK  Name = ZINC08730943
REMARK  4 active torsions:
REMARK  status: ('A' for Active; 'I' for Inactive)
REMARK    1  A    between atoms: C_2  and  C_13
REMARK    2  A    between atoms: C_13  and  C_14
REMARK    3  A    between atoms: C_13  and  N_18
REMARK    4  A    between atoms: C_14  and  C_15
REMARK                            x       y       z     vdW  Elec       q    Type
REMARK                         _______ _______ _______ _____ _____    ______ ____
ROOT
ATOM      1  C   UNL     1      -2.695  -3.558  -1.336  0.00  0.00    +0.000 A 
ATOM      2  C   UNL     1      -2.283  -3.045  -0.116  0.00  0.00    +0.000 A 
ATOM      3  C   UNL     1      -3.082  -3.260   0.996  0.00  0.00    +0.000 A 
ATOM      4  N   UNL     1      -4.210  -3.936   0.859  0.00  0.00    +0.000 NA
ATOM      5  C   UNL     1      -4.575  -4.413  -0.322  0.00  0.00    +0.000 A 
ATOM      6  N   UNL     1      -3.833  -4.229  -1.403  0.00  0.00    +0.000 NA
ATOM      7  N   UNL     1      -5.761  -5.120  -0.428  0.00  0.00    +0.000 N 
ATOM      8  C   UNL     1      -6.647  -4.514  -1.431  0.00  0.00    +0.000 C 
ATOM      9  C   UNL     1      -7.918  -5.359  -1.559  0.00  0.00    +0.000 C 
ATOM     10  O   UNL     1      -8.543  -5.466  -0.278  0.00  0.00    +0.000 OA
ATOM     11  C   UNL     1      -7.708  -6.053   0.724  0.00  0.00    +0.000 C 
ATOM     12  C   UNL     1      -6.436  -5.215   0.875  0.00  0.00    +0.000 C 
ENDROOT
BRANCH   2  13
ATOM     13  C   UNL     1      -0.993  -2.276  -0.001  0.00  0.00    +0.000 C 
BRANCH  13  14
ATOM     14  N   UNL     1      -0.308  -2.673   1.242  0.00  0.00    +0.000 N 
ATOM     15  H   UNL     1      -0.104  -3.682   1.220  0.00  0.00    +0.000 HD
ATOM     16  H   UNL     1      -0.907  -2.460   2.053  0.00  0.00    +0.000 HD
ATOM     17  H   UNL     1       0.575  -2.149   1.327  0.00  0.00    +0.000 HD
ENDBRANCH  13  14
BRANCH  13  18
ATOM     18  C   UNL     1      -1.293  -0.775   0.010  0.00  0.00    +0.000 C 
BRANCH  18  19
ATOM     19  C   UNL     1       0.002  -0.004   0.002  0.00  0.00    +0.000 C 
ATOM     20  O   UNL     1       1.056  -0.594  -0.011  0.00  0.00    +0.000 OA
ATOM     21  O   UNL     1      -0.016   1.338   0.009  0.00  0.00    +0.000 OA
ENDBRANCH  18  19
ENDBRANCH  13  18
ENDBRANCH   2  13
TORSDOF 4
ENDMDL
MODEL     1179
REMARK  Name = ZINC31259784
REMARK  5 active torsions:
REMARK  status: ('A' for Active; 'I' for Inactive)
REMARK    1  A    between atoms: C_3  and  O_20
REMARK    2  A    between atoms: C_4  and  O_19
REMARK    3  A    between atoms: C_5  and  N_6
REMARK    4  A    between atoms: N_6  and  C_7
REMARK    5  A    between atoms: C_7  and  C_8
REMARK                            x       y       z     vdW  Elec       q    Type
REMARK                         _______ _______ _______ _____ _____    ______ ____
ROOT
ATOM      1  C   UNL     1       3.524   1.722  -1.163  0.00  0.00    +0.000 C 
ENDROOT
BRANCH   1   2
ATOM      2  C   UNL     1       4.455   0.707  -1.773  0.00  0.00    +0.000 C 
ATOM      3  C   UNL     1       4.502   0.328  -3.075  0.00  0.00    +0.000 C 
ATOM      4  C   UNL     1       5.578  -0.688  -3.175  0.00  0.00    +0.000 C 
ATOM      5  N   UNL     1       5.820  -1.210  -4.349  0.00  0.00    +0.000 NA
ATOM      6  C   UNL     1       5.121  -0.839  -5.448  0.00  0.00    +0.000 C 
ATOM      7  N   UNL     1       4.159   0.053  -5.449  0.00  0.00    +0.000 NA
ATOM      8  C   UNL     1       3.785   0.686  -4.312  0.00  0.00    +0.000 C 
ATOM      9  O   UNL     1       2.893   1.514  -4.312  0.00  0.00    +0.000 OA
ATOM     10  N   UNL     1       5.439  -1.436  -6.639  0.00  0.00    +0.000 N 
ATOM     11  N   UNL     1       6.099  -0.855  -1.917  0.00  0.00    +0.000 NA
ATOM     12  C   UNL     1       5.493  -0.079  -1.069  0.00  0.00    +0.000 C 
ATOM     13  H   UNL     1       6.184  -2.144  -6.706  0.00  0.00    +0.000 HD
ATOM     14  H   UNL     1       4.918  -1.167  -7.485  0.00  0.00    +0.000 HD
ENDBRANCH   1   2
BRANCH   1  15
ATOM     15  N   UNL     1       2.350   1.038  -0.606  0.00  0.00    +0.000 N 
ATOM     16  H   UNL     1       2.658   0.366   0.111  0.00  0.00    +0.000 HD
ATOM     17  H   UNL     1       1.869   0.525  -1.358  0.00  0.00    +0.000 HD
BRANCH  15  22
ATOM     18  C   UNL     1       1.756   2.215   1.456  0.00  0.00    +0.000 C 
ATOM     19  C   UNL     1       0.681   2.196   2.196  0.00  0.00    +0.000 C 
ATOM     20  C   UNL     1      -0.553   1.965   1.356  0.00  0.00    +0.000 C 
ATOM     21  C   UNL     1      -0.017   1.425   0.010  0.00  0.00    +0.000 C 
ATOM     22  C   UNL     1       1.418   2.000  -0.001  0.00  0.00    +0.000 C 
BRANCH  21  23
ATOM     23  O   UNL     1       0.002  -0.004   0.002  0.00  0.00    +0.000 OA
ATOM     24  H   UNL     1      -0.919  -0.337   0.149  0.00  0.00    +0.000 HD
ENDBRANCH  21  23
BRANCH  20  25
ATOM     25  O   UNL     1      -1.256   3.193   1.155  0.00  0.00    +0.000 OA
ATOM     26  H   UNL     1      -0.659   3.837   0.696  0.00  0.00    +0.000 HD
ENDBRANCH  20  25
ENDBRANCH  15  22
ENDBRANCH   1  15
TORSDOF 5
ENDMDL
MODEL     1180
REMARK  Name = ZINC31260004
REMARK  5 active torsions:
REMARK  status: ('A' for Active; 'I' for Inactive)
REMARK    1  A    between atoms: C_2  and  C_12
REMARK    2  A    between atoms: C_13  and  O_20
REMARK    3  A    between atoms: C_14  and  O_19
REMARK    4  A    between atoms: C_15  and  C_17
REMARK    5  A    between atoms: C_17  and  O_18
REMARK                            x       y       z     vdW  Elec       q    Type
REMARK                         _______ _______ _______ _____ _____    ______ ____
ROOT
ATOM      1  C   UNK     1       1.970   4.334   1.937  0.00  0.00    +0.000 A 
ATOM      2  C   UNK     1       1.003   3.747   1.198  0.00  0.00    +0.000 A 
ATOM      3  C   UNK     1      -0.202   3.842   1.913  0.00  0.00    +0.000 A 
ATOM      4  C   UNK     1       0.082   4.510   3.098  0.00  0.00    +0.000 A 
ATOM      5  N   UNK     1       1.426   4.807   3.091  0.00  0.00    +0.000 N 
ATOM      6  C   UNK     1      -0.974   4.742   4.015  0.00  0.00    +0.000 A 
ATOM      7  O   UNK     1      -0.760   5.327   5.066  0.00  0.00    +0.000 OA
ATOM      8  N   UNK     1      -2.210   4.314   3.718  0.00  0.00    +0.000 NA
ATOM      9  C   UNK     1      -2.469   3.682   2.593  0.00  0.00    +0.000 A 
ATOM     10  N   UNK     1      -1.499   3.430   1.673  0.00  0.00    +0.000 N 
ATOM     11  N   UNK     1      -3.750   3.268   2.341  0.00  0.00    +0.000 N 
ATOM     12  H   UNK     1       1.935   5.305   3.835  0.00  0.00    +0.000 HD
ATOM     13  H   UNK     1      -1.731   2.933   0.801  0.00  0.00    +0.000 HD
ATOM     14  H   UNK     1      -4.502   3.447   3.022  0.00  0.00    +0.000 HD
ATOM     15  H   UNK     1      -3.961   2.773   1.463  0.00  0.00    +0.000 HD
ENDROOT
BRANCH   2  16
ATOM     16  C   UNK     1       1.186   3.100  -0.151  0.00  0.00    +0.000 C 
ATOM     17  C   UNK     1       1.286   1.562  -0.002  0.00  0.00    +0.000 C 
ATOM     18  C   UNK     1       2.069   1.173  -1.284  0.00  0.00    +0.000 C 
ATOM     19  C   UNK     1       3.047   2.353  -1.466  0.00  0.00    +0.000 C 
ATOM     20  N   UNK     1       2.477   3.507  -0.746  0.00  0.00    +0.000 N 
ATOM     21  H   UNK     1       2.325   4.284  -1.405  0.00  0.00    +0.000 HD
ATOM     22  H   UNK     1       3.124   3.802  -0.001  0.00  0.00    +0.000 HD
BRANCH  18  23
ATOM     23  O   UNK     1       2.783  -0.049  -1.089  0.00  0.00    +0.000 OA
ATOM     24  H   UNK     1       2.138  -0.766  -0.865  0.00  0.00    +0.000 HD
ENDBRANCH  18  23
BRANCH  17  25
ATOM     25  O   UNK     1      -0.011   0.963   0.007  0.00  0.00    +0.000 OA
ATOM     26  H   UNK     1      -0.471   1.184  -0.841  0.00  0.00    +0.000 HD
ENDBRANCH  17  25
BRANCH  19  27
ATOM     27  C   UNK     1       3.190   2.686  -2.952  0.00  0.00    +0.000 C 
BRANCH  27  28
ATOM     28  O   UNK     1       4.183   3.700  -3.119  0.00  0.00    +0.000 OA
ATOM     29  H   UNK     1       5.050   3.375  -2.769  0.00  0.00    +0.000 HD
ENDBRANCH  27  28
ENDBRANCH  19  27
ENDBRANCH   2  16
TORSDOF 5
ENDMDL
MODEL     1181
REMARK  Name = ZINC12502747
REMARK  7 active torsions:
REMARK  status: ('A' for Active; 'I' for Inactive)
REMARK    1  A    between atoms: C_1  and  C_2
REMARK    2  A    between atoms: C_1  and  O_13
REMARK    3  A    between atoms: C_3  and  O_10
REMARK    4  A    between atoms: C_4  and  O_9
REMARK    5  A    between atoms: C_5  and  N_14
REMARK    6  A    between atoms: C_6  and  O_8
REMARK    7  A    between atoms: O_10  and  P_11
REMARK                            x       y       z     vdW  Elec       q    Type
REMARK                         _______ _______ _______ _____ _____    ______ ____
ROOT
ATOM      1  C   UNL     1      -0.013   1.086   0.008  0.00  0.00    +0.000 C 
ATOM      2  C   UNL     1      -0.730   1.580   1.267  0.00  0.00    +0.000 C 
ATOM      3  C   UNL     1      -2.183   1.095   1.241  0.00  0.00    +0.000 C 
ATOM      4  C   UNL     1      -2.853   1.594  -0.043  0.00  0.00    +0.000 C 
ATOM      5  C   UNL     1      -2.053   1.100  -1.252  0.00  0.00    +0.000 C 
ATOM      6  O   UNL     1      -0.704   1.559  -1.149  0.00  0.00    +0.000 OA
ENDROOT
BRANCH   4   7
ATOM      7  N   UNL     1      -4.234   1.084  -0.095  0.00  0.00    +0.000 N 
ATOM      8  H   UNL     1      -4.761   1.426   0.721  0.00  0.00    +0.000 HD
ATOM      9  H   UNL     1      -4.225   0.054  -0.092  0.00  0.00    +0.000 HD
ATOM     10  H   UNL     1      -4.689   1.417  -0.957  0.00  0.00    +0.000 HD
ENDBRANCH   4   7
BRANCH   5  11
ATOM     11  O   UNL     1      -2.640   1.608  -2.452  0.00  0.00    +0.000 OA
ATOM     12  H   UNL     1      -2.629   2.597  -2.432  0.00  0.00    +0.000 HD
ENDBRANCH   5  11
BRANCH   3  13
ATOM     13  O   UNL     1      -2.213  -0.333   1.272  0.00  0.00    +0.000 OA
ATOM     14  H   UNL     1      -1.774  -0.654   2.099  0.00  0.00    +0.000 HD
ENDBRANCH   3  13
BRANCH   1  15
ATOM     15  C   UNL     1       1.423   1.616  -0.003  0.00  0.00    +0.000 C 
BRANCH  15  16
ATOM     16  O   UNL     1       2.127   1.062  -1.116  0.00  0.00    +0.000 OA
ATOM     17  H   UNL     1       1.673   1.322  -1.957  0.00  0.00    +0.000 HD
ENDBRANCH  15  16
ENDBRANCH   1  15
BRANCH   2  18
ATOM     18  O   UNL     1      -0.703   3.008   1.303  0.00  0.00    +0.000 OA
BRANCH  18  19
ATOM     19  P   UNL     1      -0.017   3.843   2.496  0.00  0.00    +0.000 P 
ATOM     20  O   UNL     1       1.389   3.410   2.655  0.00  0.00    +0.000 OA
ATOM     21  O   UNL     1      -0.058   5.414   2.145  0.00  0.00    +0.000 OA
ATOM     22  O   UNL     1      -0.819   3.578   3.867  0.00  0.00    +0.000 OA
ENDBRANCH  18  19
ENDBRANCH   2  18
TORSDOF 7
ENDMDL
MODEL     1182
REMARK  Name = ZINC17254510
REMARK  7 active torsions:
REMARK  status: ('A' for Active; 'I' for Inactive)
REMARK    1  A    between atoms: C_1  and  C_2
REMARK    2  A    between atoms: N_4  and  C_10
REMARK    3  A    between atoms: C_11  and  O_21
REMARK    4  A    between atoms: C_12  and  C_17
REMARK    5  A    between atoms: C_13  and  C_15
REMARK    6  A    between atoms: C_15  and  O_16
REMARK    7  A    between atoms: C_17  and  N_18
REMARK                            x       y       z     vdW  Elec       q    Type
REMARK                         _______ _______ _______ _____ _____    ______ ____
ROOT
ATOM      1  C   UNL     1       0.418   1.475  -2.213  0.00  0.00    +0.000 C 
ATOM      2  C   UNL     1       1.718   1.905  -1.498  0.00  0.00    +0.000 C 
ATOM      3  C   UNL     1       1.428   1.643  -0.003  0.00  0.00    +0.000 C 
ATOM      4  C   UNL     1      -0.013   1.086   0.008  0.00  0.00    +0.000 C 
ATOM      5  O   UNL     1      -0.612   1.587  -1.207  0.00  0.00    +0.000 OA
ENDROOT
BRANCH   1   9
ATOM      6  C   UNL     1      -1.215  -3.177  -2.166  0.00  0.00    +0.000 C 
ATOM      7  C   UNL     1      -0.253  -2.126  -2.658  0.00  0.00    +0.000 A 
ATOM      8  C   UNL     1      -0.354  -0.851  -2.225  0.00  0.00    +0.000 A 
ATOM      9  N   UNL     1       0.528   0.091  -2.681  0.00  0.00    +0.000 N 
ATOM     10  C   UNL     1       1.492  -0.241  -3.560  0.00  0.00    +0.000 A 
ATOM     11  O   UNL     1       2.262   0.613  -3.955  0.00  0.00    +0.000 OA
ATOM     12  N   UNL     1       1.618  -1.506  -4.003  0.00  0.00    +0.000 N 
ATOM     13  C   UNL     1       0.769  -2.463  -3.578  0.00  0.00    +0.000 A 
ATOM     14  O   UNL     1       0.880  -3.606  -3.982  0.00  0.00    +0.000 OA
ATOM     15  H   UNL     1       2.367  -1.743  -4.669  0.00  0.00    +0.000 HD
ENDBRANCH   1   9
BRANCH   2  16
ATOM     16  O   UNL     1       1.978   3.292  -1.722  0.00  0.00    +0.000 OA
ATOM     17  H   UNL     1       1.218   3.823  -1.375  0.00  0.00    +0.000 HD
ENDBRANCH   2  16
BRANCH   3  18
ATOM     18  C   UNL     1       2.406   0.611   0.560  0.00  0.00    +0.000 C 
BRANCH  18  19
ATOM     19  N   UNL     1       2.128   0.400   1.983  0.00  0.00    +0.000 NA
ATOM     20  N   UNL     1       1.846  -0.623   2.355  0.00  0.00    +0.000 NA
ATOM     21  N   UNL     1       1.563  -1.645   2.727  0.00  0.00    +0.000 NA
ENDBRANCH  18  19
ENDBRANCH   3  18
BRANCH   4  22
ATOM     22  C   UNL     1      -0.774   1.600   1.232  0.00  0.00    +0.000 C 
BRANCH  22  23
ATOM     23  O   UNL     1      -2.075   1.011   1.266  0.00  0.00    +0.000 OA
ATOM     24  H   UNL     1      -1.991   0.026   1.321  0.00  0.00    +0.000 HD
ENDBRANCH  22  23
ENDBRANCH   4  22
TORSDOF 6
ENDMDL
MODEL     1183
REMARK  Name = ZINC32091432
REMARK  5 active torsions:
REMARK  status: ('A' for Active; 'I' for Inactive)
REMARK    1  A    between atoms: C_4  and  N_20
REMARK    2  A    between atoms: C_6  and  N_17
REMARK    3  A    between atoms: N_9  and  C_10
REMARK    4  A    between atoms: C_13  and  C_15
REMARK    5  A    between atoms: C_15  and  O_16
REMARK                            x       y       z     vdW  Elec       q    Type
REMARK                         _______ _______ _______ _____ _____    ______ ____
ROOT
ATOM      1  C   UNL     1       2.560   3.226   0.130  0.00  0.00    +0.000 A 
ATOM      2  N   UNL     1       3.035   2.007   0.086  0.00  0.00    +0.000 NA
ATOM      3  C   UNL     1       2.032   1.136  -0.048  0.00  0.00    +0.000 A 
ATOM      4  C   UNL     1       1.937  -0.321  -0.151  0.00  0.00    +0.000 A 
ATOM      5  N   UNL     1       0.736  -0.858  -0.277  0.00  0.00    +0.000 NA
ATOM      6  C   UNL     1      -0.366  -0.087  -0.309  0.00  0.00    +0.000 A 
ATOM      7  N   UNL     1      -0.319   1.251  -0.217  0.00  0.00    +0.000 NA
ATOM      8  C   UNL     1       0.826   1.886  -0.089  0.00  0.00    +0.000 A 
ATOM      9  N   UNL     1       1.204   3.204   0.026  0.00  0.00    +0.000 N 
ENDROOT
BRANCH   9  10
ATOM     10  C   UNL     1       0.313   4.367   0.035  0.00  0.00    +0.000 C 
ATOM     11  C   UNL     1       1.076   5.613  -0.351  0.00  0.00    +0.000 C 
ATOM     12  C   UNL     1       0.804   5.894  -1.604  0.00  0.00    +0.000 C 
ATOM     13  C   UNL     1      -0.157   4.851  -2.128  0.00  0.00    +0.000 C 
ATOM     14  O   UNL     1      -0.715   4.213  -0.963  0.00  0.00    +0.000 OA
BRANCH  13  15
ATOM     15  C   UNL     1       0.591   3.826  -2.984  0.00  0.00    +0.000 C 
BRANCH  15  16
ATOM     16  O   UNL     1      -0.346   2.914  -3.561  0.00  0.00    +0.000 OA
ATOM     17  H   UNL     1      -0.987   3.412  -4.128  0.00  0.00    +0.000 HD
ENDBRANCH  15  16
ENDBRANCH  13  15
ENDBRANCH   9  10
BRANCH   6  18
ATOM     18  N   UNL     1      -1.544  -0.673  -0.438  0.00  0.00    +0.000 NA
ATOM     19  N   UNL     1      -1.610  -1.792  -0.516  0.00  0.00    +0.000 NA
ATOM     20  N   UNL     1      -1.676  -2.911  -0.596  0.00  0.00    +0.000 NA
ENDBRANCH   6  18
BRANCH   4  21
ATOM     21  N   UNL     1       3.069  -1.111  -0.118  0.00  0.00    +0.000 N 
ATOM     22  H   UNL     1       3.991  -0.665  -0.018  0.00  0.00    +0.000 HD
ATOM     23  H   UNL     1       2.994  -2.136  -0.191  0.00  0.00    +0.000 HD
ENDBRANCH   4  21
TORSDOF 5
ENDMDL
MODEL     1184
REMARK  Name = ZINC06996143
REMARK  4 active torsions:
REMARK  status: ('A' for Active; 'I' for Inactive)
REMARK    1  A    between atoms: C_1  and  C_2
REMARK    2  A    between atoms: C_4  and  O_16
REMARK    3  A    between atoms: C_5  and  C_9
REMARK    4  A    between atoms: N_10  and  N_11
REMARK                            x       y       z     vdW  Elec       q    Type
REMARK                         _______ _______ _______ _____ _____    ______ ____
ROOT
ATOM      1  C   UNL     1      -4.695   4.229  -1.693  0.00  0.00    +0.000 C 
ATOM      2  N   UNL     1      -3.829   3.647  -0.919  0.00  0.00    +0.000 NA
ENDROOT
BRANCH   2   3
ATOM      3  N   UNL     1      -2.762   2.931  -1.477  0.00  0.00    +0.000 N 
ATOM      4  C   UNL     1      -1.845   2.315  -0.657  0.00  0.00    +0.000 C 
ATOM      5  C   UNL     1      -0.793   1.612   1.228  0.00  0.00    +0.000 C 
ATOM      6  C   UNL     1      -0.013   1.086   0.008  0.00  0.00    +0.000 C 
ATOM      7  N   UNL     1      -0.781   1.601  -1.138  0.00  0.00    +0.000 N 
ATOM      8  N   UNL     1      -1.917   2.364   0.636  0.00  0.00    +0.000 N 
ATOM      9  H   UNL     1      -2.664   2.866  -2.500  0.00  0.00    +0.000 HD
ATOM     10  H   UNL     1      -0.555   1.450  -2.131  0.00  0.00    +0.000 HD
ATOM     11  H   UNL     1      -2.649   2.853   1.170  0.00  0.00    +0.000 HD
ENDBRANCH   2   3
BRANCH   1  16
ATOM     12  C   UNL     1      -9.015   7.129   0.628  0.00  0.00    +0.000 C 
ATOM     13  C   UNL     1      -7.873   6.361   0.014  0.00  0.00    +0.000 A 
ATOM     14  N   UNL     1      -7.776   6.297  -1.328  0.00  0.00    +0.000 NA
ATOM     15  C   UNL     1      -6.752   5.617  -1.919  0.00  0.00    +0.000 A 
ATOM     16  C   UNL     1      -5.816   4.981  -1.108  0.00  0.00    +0.000 A 
ATOM     17  C   UNL     1      -5.971   5.085   0.302  0.00  0.00    +0.000 A 
ATOM     18  O   UNL     1      -5.171   4.547   1.052  0.00  0.00    +0.000 OA
ATOM     19  N   UNL     1      -7.008   5.781   0.800  0.00  0.00    +0.000 NA
BRANCH  15  20
ATOM     20  O   UNL     1      -6.651   5.557  -3.264  0.00  0.00    +0.000 OA
ATOM     21  H   UNL     1      -6.632   6.502  -3.556  0.00  0.00    +0.000 HD
ENDBRANCH  15  20
ENDBRANCH   1  16
TORSDOF 3
ENDMDL
MODEL     1185
REMARK  Name = ZINC05085591
REMARK  3 active torsions:
REMARK  status: ('A' for Active; 'I' for Inactive)
REMARK    1  A    between atoms: C_3  and  N_15
REMARK    2  A    between atoms: C_9  and  C_11
REMARK    3  A    between atoms: C_11  and  N_12
REMARK                            x       y       z     vdW  Elec       q    Type
REMARK                         _______ _______ _______ _____ _____    ______ ____
ROOT
ATOM      1  C   UNL     1      -1.127   3.352   0.031  0.00  0.00    +0.000 A 
ATOM      2  N   UNL     1      -0.015   4.068   0.024  0.00  0.00    +0.000 NA
ATOM      3  C   UNL     1       1.180   3.489   0.009  0.00  0.00    +0.000 A 
ATOM      4  C   UNL     1       1.220   2.027   0.001  0.00  0.00    +0.000 A 
ATOM      5  C   UNL     1      -0.016   1.331   0.009  0.00  0.00    +0.000 A 
ATOM      6  N   UNL     1      -1.150   2.041   0.029  0.00  0.00    +0.000 NA
ATOM      7  N   UNL     1       0.002  -0.004   0.002  0.00  0.00    +0.000 NA
ATOM      8  N   UNL     1       1.133  -0.625  -0.012  0.00  0.00    +0.000 NA
ATOM      9  C   UNL     1       2.293   0.018  -0.020  0.00  0.00    +0.000 A 
ATOM     10  N   UNL     1       2.353   1.333  -0.014  0.00  0.00    +0.000 NA
ENDROOT
BRANCH   3  11
ATOM     11  N   UNL     1       2.337   4.236   0.003  0.00  0.00    +0.000 N 
ATOM     12  H   UNL     1       2.269   5.264   0.009  0.00  0.00    +0.000 HD
ATOM     13  H   UNL     1       3.258   3.776  -0.009  0.00  0.00    +0.000 HD
ENDBRANCH   3  11
BRANCH   9  14
ATOM     14  C   UNL     1       3.573  -0.777  -0.036  0.00  0.00    +0.000 C 
BRANCH  14  15
ATOM     15  N   UNL     1       3.975  -1.027  -1.423  0.00  0.00    +0.000 NA
ATOM     16  N   UNL     1       4.965  -0.650  -1.798  0.00  0.00    +0.000 NA
ATOM     17  N   UNL     1       5.955  -0.272  -2.173  0.00  0.00    +0.000 NA
ENDBRANCH  14  15
ENDBRANCH   9  14
TORSDOF 3
ENDMDL
MODEL     1186
REMARK  Name = ZINC20373579
REMARK  4 active torsions:
REMARK  status: ('A' for Active; 'I' for Inactive)
REMARK    1  A    between atoms: C_3  and  N_17
REMARK    2  A    between atoms: C_6  and  N_7
REMARK    3  A    between atoms: N_7  and  S_8
REMARK    4  A    between atoms: S_8  and  N_11
REMARK                            x       y       z     vdW  Elec       q    Type
REMARK                         _______ _______ _______ _____ _____    ______ ____
ROOT
ATOM      1  N   UNL     1       1.238  -2.072  -0.024  0.00  0.00    +0.000 N 
ATOM      2  H   UNL     1       0.586  -1.368  -0.399  0.00  0.00    +0.000 HD
ENDROOT
BRANCH   1   8
ATOM      3  C   UNL     1       1.117  -1.423   2.297  0.00  0.00    +0.000 A 
ATOM      4  C   UNL     1       1.071  -1.766   3.634  0.00  0.00    +0.000 A 
ATOM      5  C   UNL     1       1.099  -3.097   4.009  0.00  0.00    +0.000 A 
ATOM      6  C   UNL     1       1.174  -4.088   3.047  0.00  0.00    +0.000 A 
ATOM      7  C   UNL     1       1.220  -3.751   1.709  0.00  0.00    +0.000 A 
ATOM      8  C   UNL     1       1.192  -2.416   1.329  0.00  0.00    +0.000 A 
BRANCH   5   9
ATOM      9  N   UNL     1       1.050  -3.461   5.443  0.00  0.00    +0.000 N 
ATOM     10  O   UNL     1       0.984  -2.589   6.291  0.00  0.00    +0.000 OA
ATOM     11  O   UNL     1       1.075  -4.633   5.774  0.00  0.00    +0.000 OA
ENDBRANCH   5   9
ENDBRANCH   1   8
BRANCH   1  12
ATOM     12  S   UNL     1       2.341  -2.795  -1.025  0.00  0.00    +0.000 S 
ATOM     13  O   UNL     1       2.181  -4.198  -0.860  0.00  0.00    +0.000 OA
ATOM     14  O   UNL     1       2.220  -2.159  -2.290  0.00  0.00    +0.000 OA
BRANCH  12  15
ATOM     15  N   UNL     1       3.847  -2.419  -0.448  0.00  0.00    +0.000 NA
ATOM     16  C   UNL     1       4.508  -1.161  -0.826  0.00  0.00    +0.000 C 
ATOM     17  C   UNL     1       5.915  -1.477  -1.331  0.00  0.00    +0.000 C 
ATOM     18  N   UNL     1       6.627  -2.275  -0.324  0.00  0.00    +0.000 N 
ATOM     19  C   UNL     1       5.969  -3.570  -0.108  0.00  0.00    +0.000 C 
ATOM     20  C   UNL     1       4.561  -3.337   0.452  0.00  0.00    +0.000 C 
ATOM     21  H   UNL     1       7.594  -2.435  -0.641  0.00  0.00    +0.000 HD
ATOM     22  H   UNL     1       6.653  -1.756   0.565  0.00  0.00    +0.000 HD
ENDBRANCH  12  15
ENDBRANCH   1  12
TORSDOF 4
ENDMDL
MODEL     1187
REMARK  Name = ZINC05114094
REMARK  6 active torsions:
REMARK  status: ('A' for Active; 'I' for Inactive)
REMARK    1  A    between atoms: C_2  and  C_13
REMARK    2  A    between atoms: C_13  and  C_14
REMARK    3  A    between atoms: C_13  and  O_18
REMARK    4  A    between atoms: C_14  and  C_15
REMARK    5  A    between atoms: C_14  and  O_17
REMARK    6  A    between atoms: C_15  and  O_16
REMARK                            x       y       z     vdW  Elec       q    Type
REMARK                         _______ _______ _______ _____ _____    ______ ____
ROOT
ATOM      1  C   UNL     1      -3.641   1.646   0.295  0.00  0.00    +0.000 C 
ATOM      2  C   UNL     1      -3.562   2.993  -0.437  0.00  0.00    +0.000 C 
ATOM      3  N   UNL     1      -2.408   3.743   0.071  0.00  0.00    +0.000 N 
ATOM      4  C   UNL     1      -1.216   2.997   0.038  0.00  0.00    +0.000 A 
ATOM      5  C   UNL     1      -1.209   1.634   0.017  0.00  0.00    +0.000 A 
ATOM      6  N   UNL     1      -0.011   0.966   0.007  0.00  0.00    +0.000 N 
ATOM      7  C   UNL     1       1.158   1.661  -0.000  0.00  0.00    +0.000 A 
ATOM      8  N   UNL     1       1.168   2.976   0.009  0.00  0.00    +0.000 NA
ATOM      9  C   UNL     1       0.025   3.677   0.028  0.00  0.00    +0.000 A 
ATOM     10  O   UNL     1       0.055   4.900   0.036  0.00  0.00    +0.000 OA
ATOM     11  N   UNL     1       2.348   0.978  -0.017  0.00  0.00    +0.000 N 
ATOM     12  N   UNL     1      -2.393   0.919   0.011  0.00  0.00    +0.000 N 
ATOM     13  H   UNL     1      -2.465   4.712   0.415  0.00  0.00    +0.000 HD
ATOM     14  H   UNL     1       0.003  -0.064   0.006  0.00  0.00    +0.000 HD
ATOM     15  H   UNL     1       2.358  -0.052  -0.024  0.00  0.00    +0.000 HD
ATOM     16  H   UNL     1       3.236   1.500  -0.023  0.00  0.00    +0.000 HD
ATOM     17  H   UNL     1      -2.401  -0.091  -0.187  0.00  0.00    +0.000 HD
ENDROOT
BRANCH   2  18
ATOM     18  C   UNL     1      -4.843   3.791  -0.187  0.00  0.00    +0.000 C 
BRANCH  18  19
ATOM     19  O   UNL     1      -5.965   3.059  -0.683  0.00  0.00    +0.000 OA
ATOM     20  H   UNL     1      -6.024   2.188  -0.217  0.00  0.00    +0.000 HD
ENDBRANCH  18  19
BRANCH  18  21
ATOM     21  C   UNL     1      -4.753   5.138  -0.908  0.00  0.00    +0.000 C 
BRANCH  21  22
ATOM     22  O   UNL     1      -3.631   5.870  -0.412  0.00  0.00    +0.000 OA
ATOM     23  H   UNL     1      -2.802   5.354  -0.574  0.00  0.00    +0.000 HD
ENDBRANCH  21  22
BRANCH  21  24
ATOM     24  C   UNL     1      -6.034   5.937  -0.657  0.00  0.00    +0.000 C 
BRANCH  24  25
ATOM     25  O   UNL     1      -6.001   7.143  -1.423  0.00  0.00    +0.000 OA
ATOM     26  H   UNL     1      -5.934   6.921  -2.386  0.00  0.00    +0.000 HD
ENDBRANCH  24  25
ENDBRANCH  21  24
ENDBRANCH  18  21
ENDBRANCH   2  18
TORSDOF 6
ENDMDL
MODEL     1188
REMARK  Name = ZINC00970322
REMARK  5 active torsions:
REMARK  status: ('A' for Active; 'I' for Inactive)
REMARK    1  A    between atoms: C_1  and  N_17
REMARK    2  A    between atoms: C_2  and  N_17
REMARK    3  A    between atoms: C_3  and  C_4
REMARK    4  A    between atoms: C_3  and  N_17
REMARK    5  A    between atoms: C_5  and  C_15
REMARK                            x       y       z     vdW  Elec       q    Type
REMARK                         _______ _______ _______ _____ _____    ______ ____
ROOT
ATOM      1  C   UNL     1      -0.497   5.389   0.046  0.00  0.00    +0.000 A 
ATOM      2  C   UNL     1       0.764   5.914   0.053  0.00  0.00    +0.000 A 
ATOM      3  N   UNL     1       1.647   4.900   0.041  0.00  0.00    +0.000 NA
ATOM      4  N   UNL     1       1.016   3.778   0.032  0.00  0.00    +0.000 NA
ATOM      5  N   UNL     1      -0.360   4.045   0.038  0.00  0.00    +0.000 N 
ATOM      6  C   UNL     1      -1.393   3.100   0.031  0.00  0.00    +0.000 A 
ATOM      7  C   UNL     1      -1.224   1.645   0.017  0.00  0.00    +0.000 A 
ATOM      8  N   UNL     1      -2.408   1.094   0.020  0.00  0.00    +0.000 NA
ATOM      9  O   UNL     1      -3.369   2.134   0.030  0.00  0.00    +0.000 OA
ATOM     10  N   UNL     1      -2.669   3.366   0.033  0.00  0.00    +0.000 NA
ATOM     11  N   UNL     1      -0.011   0.966   0.007  0.00  0.00    +0.000 N 
ATOM     12  H   UNL     1       0.831   1.558   0.011  0.00  0.00    +0.000 HD
ATOM     13  H   UNL     1       0.059  -0.062  -0.003  0.00  0.00    +0.000 HD
ENDROOT
BRANCH   2  14
ATOM     14  C   UNL     1       1.100   7.349   0.065  0.00  0.00    +0.000 C 
ATOM     15  O   UNL     1       0.213   8.180   0.075  0.00  0.00    +0.000 OA
ATOM     16  O   UNL     1       2.389   7.739   0.066  0.00  0.00    +0.000 OA
ENDBRANCH   2  14
BRANCH   1  17
ATOM     17  C   UNL     1      -1.792   6.160   0.050  0.00  0.00    +0.000 C 
BRANCH  17  20
ATOM     18  C   UNL     1      -3.337   7.348   1.488  0.00  0.00    +0.000 C 
ATOM     19  C   UNL     1      -2.555   5.143   2.111  0.00  0.00    +0.000 C 
ATOM     20  N   UNL     1      -2.192   6.414   1.450  0.00  0.00    +0.000 N 
ATOM     21  H   UNL     1      -1.398   6.837   1.953  0.00  0.00    +0.000 HD
ENDBRANCH  17  20
ENDBRANCH   1  17
TORSDOF 3
ENDMDL
MODEL     1189
REMARK  Name = ZINC17105047
REMARK  3 active torsions:
REMARK  status: ('A' for Active; 'I' for Inactive)
REMARK    1  A    between atoms: C_1  and  C_9
REMARK    2  A    between atoms: N_2  and  N_3
REMARK    3  A    between atoms: N_10  and  N_11
REMARK                            x       y       z     vdW  Elec       q    Type
REMARK                         _______ _______ _______ _____ _____    ______ ____
ROOT
ATOM      1  C   UNL     1       4.008  -0.718   0.052  0.00  0.00    +0.000 C 
ATOM      2  N   UNL     1       3.436   0.452  -0.022  0.00  0.00    +0.000 NA
ENDROOT
BRANCH   2   3
ATOM      3  N   UNL     1       2.046   0.562   0.107  0.00  0.00    +0.000 N 
ATOM      4  N   UNL     1       1.289   1.731  -0.077  0.00  0.00    +0.000 NA
ATOM      5  C   UNL     1      -0.024   1.350   0.155  0.00  0.00    +0.000 A 
ATOM      6  N   UNL     1      -1.087   2.107   0.094  0.00  0.00    +0.000 N 
ATOM      7  N   UNL     1       0.021   0.021   0.454  0.00  0.00    +0.000 NA
ATOM      8  N   UNL     1       1.237  -0.390   0.414  0.00  0.00    +0.000 NA
ATOM      9  H   UNL     1      -0.903   3.090  -0.155  0.00  0.00    +0.000 HD
ATOM     10  H   UNL     1      -2.042   1.770   0.277  0.00  0.00    +0.000 HD
ENDBRANCH   2   3
BRANCH   1  11
ATOM     11  C   UNL     1       3.218  -1.895   0.032  0.00  0.00    +0.000 C 
ATOM     12  N   UNL     1       3.773  -3.056   0.243  0.00  0.00    +0.000 NA
BRANCH  12  13
ATOM     13  N   UNL     1       5.167  -3.160   0.334  0.00  0.00    +0.000 N 
ATOM     14  N   UNL     1       5.901  -4.354   0.438  0.00  0.00    +0.000 NA
ATOM     15  C   UNL     1       7.228  -3.955   0.498  0.00  0.00    +0.000 A 
ATOM     16  N   UNL     1       8.278  -4.726   0.597  0.00  0.00    +0.000 N 
ATOM     17  N   UNL     1       7.211  -2.594   0.438  0.00  0.00    +0.000 NA
ATOM     18  N   UNL     1       5.999  -2.180   0.344  0.00  0.00    +0.000 NA
ATOM     19  H   UNL     1       8.072  -5.735   0.633  0.00  0.00    +0.000 HD
ATOM     20  H   UNL     1       9.245  -4.375   0.639  0.00  0.00    +0.000 HD
ENDBRANCH  12  13
ENDBRANCH   1  11
TORSDOF 3
ENDMDL
MODEL     1190
REMARK  Name = ZINC24190786
REMARK  6 active torsions:
REMARK  status: ('A' for Active; 'I' for Inactive)
REMARK    1  A    between atoms: N9_5  and  C1*_6
REMARK    2  A    between atoms: C2*_7  and  O2*_14
REMARK    3  A    between atoms: C3*_8  and  O3*_13
REMARK    4  A    between atoms: C4*_9  and  C5*_11
REMARK    5  A    between atoms: C5*_11  and  O5*_12
REMARK    6  A    between atoms: C6_18  and  O6_19
REMARK                            x       y       z     vdW  Elec       q    Type
REMARK                         _______ _______ _______ _____ _____    ______ ____
ROOT
ATOM      1  C8    I A   1      -0.972  -0.625   2.570  0.00  0.00    +0.000 C 
ATOM      2  N7    I A   1      -0.506  -0.991   3.918  0.00  0.00    +0.000 N 
ATOM      3  C5    I A   1       0.094   0.143   4.458  0.00  0.00    +0.000 C 
ATOM      4  C4    I A   1       0.055   1.170   3.587  0.00  0.00    +0.000 C 
ATOM      5  N9    I A   1      -0.578   0.784   2.403  0.00  0.00    +0.000 N 
ATOM      6  N3    I A   1       0.585   2.399   3.896  0.00  0.00    +0.000 NA
ATOM      7  C2    I A   1       1.360   2.507   4.940  0.00  0.00    +0.000 C 
ATOM      8  N1    I A   1       1.679   1.420   5.716  0.00  0.00    +0.000 N 
ATOM      9  C6    I A   1       0.730   0.298   5.825  0.00  0.00    +0.000 C 
ATOM     10  H7    I A   1      -0.606  -1.909   4.373  0.00  0.00    +0.000 HD
ATOM     11  H1    I A   1       2.577   1.389   6.220  0.00  0.00    +0.000 HD
ENDROOT
BRANCH   5  12
ATOM     12  C1*   I A   1      -0.810   1.621   1.224  0.00  0.00    +0.000 C 
ATOM     13  C2*   I A   1      -0.013   1.086   0.008  0.00  0.00    +0.000 C 
ATOM     14  C3*   I A   1      -0.833   1.634  -1.185  0.00  0.00    +0.000 C 
ATOM     15  C4*   I A   1      -2.223   1.924  -0.587  0.00  0.00    +0.000 C 
ATOM     16  O4*   I A   1      -2.186   1.524   0.793  0.00  0.00    +0.000 OA
BRANCH  14  17
ATOM     17  O3*   I A   1      -0.241   2.833  -1.690  0.00  0.00    +0.000 OA
ATOM     18  H3*   I A   1       0.683   2.639  -1.985  0.00  0.00    +0.000 HD
ENDBRANCH  14  17
BRANCH  13  19
ATOM     19  O2*   I A   1       1.316   1.611  -0.002  0.00  0.00    +0.000 OA
ATOM     20  H2*   I A   1       1.772   1.346   0.836  0.00  0.00    +0.000 HD
ENDBRANCH  13  19
BRANCH  15  21
ATOM     21  C5*   I A   1      -3.289   1.120  -1.334  0.00  0.00    +0.000 C 
BRANCH  21  22
ATOM     22  O5*   I A   1      -4.584   1.482  -0.851  0.00  0.00    +0.000 OA
ATOM     23  H5*   I A   1      -4.735   2.449  -1.002  0.00  0.00    +0.000 HD
ENDBRANCH  21  22
ENDBRANCH  15  21
ENDBRANCH   5  12
BRANCH   9  24
ATOM     24  O6    I A   1      -0.271   0.595   6.801  0.00  0.00    +0.000 OA
ATOM     25  H6    I A   1      -0.932  -0.142   6.826  0.00  0.00    +0.000 HD
ENDBRANCH   9  24
TORSDOF 6
ENDMDL
MODEL     1191
REMARK  Name = ZINC06499615
REMARK  6 active torsions:
REMARK  status: ('A' for Active; 'I' for Inactive)
REMARK    1  A    between atoms: C_2  and  O_16
REMARK    2  A    between atoms: C_4  and  O_15
REMARK    3  A    between atoms: C_5  and  C_8
REMARK    4  A    between atoms: C_6  and  O_7
REMARK    5  A    between atoms: N_9  and  N_10
REMARK    6  A    between atoms: N_12  and  O_13
REMARK                            x       y       z     vdW  Elec       q    Type
REMARK                         _______ _______ _______ _____ _____    ______ ____
ROOT
ATOM      1  C   UNL     1      -0.052   4.138   0.023  0.00  0.00    +0.000 A 
ATOM      2  C   UNL     1       1.155   3.452   0.009  0.00  0.00    +0.000 A 
ATOM      3  C   UNL     1       1.171   2.064   0.002  0.00  0.00    +0.000 A 
ATOM      4  C   UNL     1      -0.016   1.354   0.009  0.00  0.00    +0.000 A 
ATOM      5  C   UNL     1      -1.239   2.040   0.019  0.00  0.00    +0.000 A 
ATOM      6  C   UNL     1      -1.248   3.442   0.032  0.00  0.00    +0.000 A 
ENDROOT
BRANCH   5   7
ATOM      7  C   UNL     1      -2.507   1.292   0.021  0.00  0.00    +0.000 C 
ATOM      8  N   UNL     1      -3.638   1.931   0.030  0.00  0.00    +0.000 NA
BRANCH   8   9
ATOM      9  N   UNL     1      -4.844   1.219   0.032  0.00  0.00    +0.000 N 
ATOM     10  C   UNL     1      -6.045   1.897   0.041  0.00  0.00    +0.000 C 
ATOM     11  N   UNL     1      -6.058   3.199   0.048  0.00  0.00    +0.000 NA
ATOM     12  N   UNL     1      -7.235   1.196   0.043  0.00  0.00    +0.000 N 
ATOM     13  H   UNL     1      -4.835   0.189   0.026  0.00  0.00    +0.000 HD
ATOM     14  H   UNL     1      -7.226   0.166   0.037  0.00  0.00    +0.000 HD
ATOM     15  H   UNL     1      -8.132   1.702   0.050  0.00  0.00    +0.000 HD
BRANCH  11  16
ATOM     16  O   UNL     1      -7.290   3.895   0.058  0.00  0.00    +0.000 OA
ATOM     17  H   UNL     1      -7.771   3.560   0.856  0.00  0.00    +0.000 HD
ENDBRANCH  11  16
ENDBRANCH   8   9
ENDBRANCH   5   7
BRANCH   6  18
ATOM     18  O   UNL     1      -2.427   4.115   0.045  0.00  0.00    +0.000 OA
ATOM     19  H   UNL     1      -2.393   4.705  -0.749  0.00  0.00    +0.000 HD
ENDBRANCH   6  18
BRANCH   4  20
ATOM     20  O   UNL     1       0.002  -0.004   0.002  0.00  0.00    +0.000 OA
ATOM     21  H   UNL     1       0.544  -0.256   0.792  0.00  0.00    +0.000 HD
ENDBRANCH   4  20
BRANCH   2  22
ATOM     22  O   UNL     1       2.325   4.142   0.001  0.00  0.00    +0.000 OA
ATOM     23  H   UNL     1       2.284   4.725   0.800  0.00  0.00    +0.000 HD
ENDBRANCH   2  22
TORSDOF 6
ENDMDL
MODEL     1192
REMARK  Name = ZINC01646936
REMARK  6 active torsions:
REMARK  status: ('A' for Active; 'I' for Inactive)
REMARK    1  A    between atoms: C_3  and  N_18
REMARK    2  A    between atoms: C_4  and  C_15
REMARK    3  A    between atoms: N_5  and  C_6
REMARK    4  A    between atoms: C_7  and  O_14
REMARK    5  A    between atoms: C_8  and  O_13
REMARK    6  A    between atoms: C_9  and  O_12
REMARK                            x       y       z     vdW  Elec       q    Type
REMARK                         _______ _______ _______ _____ _____    ______ ____
ROOT
ATOM      1  C   UNL     1      -2.699   3.252  -0.029  0.00  0.00    +0.000 A 
ATOM      2  N   UNL     1      -1.419   2.990  -0.077  0.00  0.00    +0.000 NA
ATOM      3  C   UNL     1      -1.223   1.669   0.007  0.00  0.00    +0.000 A 
ATOM      4  C   UNL     1      -2.469   1.072   0.124  0.00  0.00    +0.000 A 
ATOM      5  N   UNL     1      -3.392   2.107   0.098  0.00  0.00    +0.000 N 
ENDROOT
BRANCH   5   6
ATOM      6  C   UNL     1      -4.848   1.976   0.191  0.00  0.00    +0.000 C 
ATOM      7  C   UNL     1      -5.427   1.708  -1.201  0.00  0.00    +0.000 C 
ATOM      8  C   UNL     1      -6.954   1.632  -1.104  0.00  0.00    +0.000 C 
ATOM      9  C   UNL     1      -7.481   2.936  -0.497  0.00  0.00    +0.000 C 
ATOM     10  C   UNL     1      -6.822   3.157   0.868  0.00  0.00    +0.000 C 
ATOM     11  O   UNL     1      -5.402   3.186   0.711  0.00  0.00    +0.000 OA
BRANCH   7  12
ATOM     12  O   UNL     1      -5.056   2.767  -2.085  0.00  0.00    +0.000 OA
ATOM     13  H   UNL     1      -4.069   2.819  -2.143  0.00  0.00    +0.000 HD
ENDBRANCH   7  12
BRANCH   9  14
ATOM     14  O   UNL     1      -7.164   4.028  -1.362  0.00  0.00    +0.000 OA
ATOM     15  H   UNL     1      -7.586   3.882  -2.246  0.00  0.00    +0.000 HD
ENDBRANCH   9  14
BRANCH   8  16
ATOM     16  O   UNL     1      -7.507   1.455  -2.410  0.00  0.00    +0.000 OA
ATOM     17  H   UNL     1      -7.160   0.616  -2.804  0.00  0.00    +0.000 HD
ENDBRANCH   8  16
ENDBRANCH   5   6
BRANCH   4  18
ATOM     18  C   UNL     1      -2.751  -0.356   0.250  0.00  0.00    +0.000 C 
ATOM     19  O   UNL     1      -2.862  -1.045  -0.748  0.00  0.00    +0.000 OA
ATOM     20  N   UNL     1      -2.889  -0.911   1.470  0.00  0.00    +0.000 N 
ATOM     21  H   UNL     1      -2.795  -0.328   2.314  0.00  0.00    +0.000 HD
ATOM     22  H   UNL     1      -3.088  -1.918   1.559  0.00  0.00    +0.000 HD
ENDBRANCH   4  18
BRANCH   3  23
ATOM     23  N   UNL     1       0.006   1.015  -0.013  0.00  0.00    +0.000 N 
ATOM     24  C   UNL     1       1.145   1.725  -0.137  0.00  0.00    +0.000 C 
ATOM     25  O   UNL     1       1.099   2.933  -0.227  0.00  0.00    +0.000 OA
ATOM     26  H   UNL     1       0.044  -0.011   0.068  0.00  0.00    +0.000 HD
ENDBRANCH   3  23
TORSDOF 6
ENDMDL
MODEL     1193
REMARK  Name = ZINC00376663
REMARK  2 active torsions:
REMARK  status: ('A' for Active; 'I' for Inactive)
REMARK    1  A    between atoms: C_6  and  N_7
REMARK    2  A    between atoms: N_11  and  N_12
REMARK                            x       y       z     vdW  Elec       q    Type
REMARK                         _______ _______ _______ _____ _____    ______ ____
ROOT
ATOM      1  C   UNL     1       2.793  -4.056   2.213  0.00  0.00    +0.000 A 
ATOM      2  C   UNL     1       3.175  -2.728   2.231  0.00  0.00    +0.000 A 
ATOM      3  C   UNL     1       2.389  -1.770   1.609  0.00  0.00    +0.000 A 
ATOM      4  C   UNL     1       1.211  -2.167   0.962  0.00  0.00    +0.000 A 
ATOM      5  C   UNL     1       0.833  -3.507   0.949  0.00  0.00    +0.000 A 
ATOM      6  C   UNL     1       1.628  -4.446   1.576  0.00  0.00    +0.000 A 
ATOM      7  C   UNL     1       0.380  -1.141   0.294  0.00  0.00    +0.000 C 
ATOM      8  N   UNL     1      -0.588  -1.462  -0.509  0.00  0.00    +0.000 NA
ATOM      9  C   UNL     1       0.719   0.308   0.598  0.00  0.00    +0.000 C 
ATOM     10  C   UNL     1       2.250   0.415   0.638  0.00  0.00    +0.000 C 
ATOM     11  O   UNL     1       2.760  -0.467   1.638  0.00  0.00    +0.000 OA
ENDROOT
BRANCH   8  12
ATOM     12  N   UNL     1      -1.352  -0.460  -1.121  0.00  0.00    +0.000 N 
ATOM     13  C   UNL     1      -2.378  -0.800  -1.973  0.00  0.00    +0.000 C 
ATOM     14  N   UNL     1      -3.128   0.183  -2.574  0.00  0.00    +0.000 N 
ATOM     15  N   UNL     1      -2.593  -2.093  -2.171  0.00  0.00    +0.000 N 
ATOM     16  H   UNL     1      -1.145   0.532  -0.935  0.00  0.00    +0.000 HD
ATOM     17  H   UNL     1      -2.921   1.175  -2.388  0.00  0.00    +0.000 HD
ATOM     18  H   UNL     1      -3.896  -0.072  -3.212  0.00  0.00    +0.000 HD
ATOM     19  H   UNL     1      -2.024  -2.821  -1.715  0.00  0.00    +0.000 HD
ATOM     20  H   UNL     1      -3.355  -2.373  -2.805  0.00  0.00    +0.000 HD
ENDBRANCH   8  12
BRANCH   6  21
ATOM     21  N   UNL     1       1.232  -5.872   1.567  0.00  0.00    +0.000 N 
ATOM     22  O   UNL     1       1.932  -6.702   2.121  0.00  0.00    +0.000 OA
ATOM     23  O   UNL     1       0.207  -6.217   1.007  0.00  0.00    +0.000 OA
ENDBRANCH   6  21
TORSDOF 2
ENDMDL
MODEL     1194
REMARK  Name = ZINC16955860
REMARK  8 active torsions:
REMARK  status: ('A' for Active; 'I' for Inactive)
REMARK    1  A    between atoms: C_1  and  C_2
REMARK    2  A    between atoms: C_1  and  O_19
REMARK    3  A    between atoms: C_3  and  O_18
REMARK    4  A    between atoms: C_4  and  O_17
REMARK    5  A    between atoms: C_5  and  C_7
REMARK    6  A    between atoms: C_8  and  N_16
REMARK    7  A    between atoms: C_9  and  C_12
REMARK    8  A    between atoms: N_14  and  N_15
REMARK                            x       y       z     vdW  Elec       q    Type
REMARK                         _______ _______ _______ _____ _____    ______ ____
ROOT
ATOM      1  C   UNL     1      -3.449   2.459   0.031  0.00  0.00    +0.000 A 
ATOM      2  C   UNL     1      -2.567   1.367   0.016  0.00  0.00    +0.000 A 
ATOM      3  C   UNL     1      -1.292   1.928   0.019  0.00  0.00    +0.000 A 
ATOM      4  N   UNL     1      -1.478   3.289   0.026  0.00  0.00    +0.000 N 
ATOM      5  N   UNL     1      -2.735   3.553   0.033  0.00  0.00    +0.000 NA
ATOM      6  H   UNL     1      -0.724   3.990   0.027  0.00  0.00    +0.000 HD
ENDROOT
BRANCH   1  10
ATOM      7  C   UNL     1      -6.735   3.813   0.417  0.00  0.00    +0.000 C 
ATOM      8  C   UNL     1      -6.430   3.958  -1.095  0.00  0.00    +0.000 C 
ATOM      9  C   UNL     1      -5.503   2.746  -1.357  0.00  0.00    +0.000 C 
ATOM     10  C   UNL     1      -4.954   2.383   0.037  0.00  0.00    +0.000 C 
ATOM     11  O   UNL     1      -5.488   3.336   0.971  0.00  0.00    +0.000 OA
BRANCH   9  12
ATOM     12  O   UNL     1      -6.248   1.655  -1.901  0.00  0.00    +0.000 OA
ATOM     13  H   UNL     1      -6.666   1.941  -2.752  0.00  0.00    +0.000 HD
ENDBRANCH   9  12
BRANCH   8  14
ATOM     14  O   UNL     1      -5.751   5.187  -1.363  0.00  0.00    +0.000 OA
ATOM     15  H   UNL     1      -4.903   5.202  -0.851  0.00  0.00    +0.000 HD
ENDBRANCH   8  14
BRANCH   7  16
ATOM     16  C   UNL     1      -7.111   5.167   1.024  0.00  0.00    +0.000 C 
BRANCH  16  17
ATOM     17  O   UNL     1      -7.500   4.987   2.387  0.00  0.00    +0.000 OA
ATOM     18  H   UNL     1      -6.747   4.596   2.897  0.00  0.00    +0.000 HD
ENDBRANCH  16  17
ENDBRANCH   7  16
ENDBRANCH   1  10
BRANCH   3  19
ATOM     19  C   UNL     1      -0.014   1.213   0.009  0.00  0.00    +0.000 C 
ATOM     20  O   UNL     1       0.002  -0.004   0.002  0.00  0.00    +0.000 OA
ATOM     21  N   UNL     1       1.143   1.903   0.001  0.00  0.00    +0.000 N 
ATOM     22  H   UNL     1       1.129   2.933   0.007  0.00  0.00    +0.000 HD
BRANCH  21  23
ATOM     23  N   UNL     1       2.336   1.236  -0.014  0.00  0.00    +0.000 NA
ATOM     24  H   UNL     1       2.350   0.206  -0.019  0.00  0.00    +0.000 HD
ATOM     25  H   UNL     1       3.220   1.763  -0.019  0.00  0.00    +0.000 HD
ENDBRANCH  21  23
ENDBRANCH   3  19
BRANCH   2  26
ATOM     26  N   UNL     1      -2.895   0.013   0.004  0.00  0.00    +0.000 N 
ATOM     27  H   UNL     1      -3.906  -0.184   0.007  0.00  0.00    +0.000 HD
ATOM     28  H   UNL     1      -2.199  -0.746  -0.006  0.00  0.00    +0.000 HD
ENDBRANCH   2  26
TORSDOF 8
ENDMDL
MODEL     1195
REMARK  Name = ZINC05758200
REMARK  4 active torsions:
REMARK  status: ('A' for Active; 'I' for Inactive)
REMARK    1  A    between atoms: C_2  and  N_11
REMARK    2  A    between atoms: C_3  and  N_9
REMARK    3  A    between atoms: N_7  and  N_8
REMARK    4  A    between atoms: N_9  and  N_10
REMARK                            x       y       z     vdW  Elec       q    Type
REMARK                         _______ _______ _______ _____ _____    ______ ____
ROOT
ATOM      1  C   UNL     1       1.201  -0.698  -0.017  0.00  0.00    +0.000 A 
ATOM      2  C   UNL     1       0.011  -0.009   0.106  0.00  0.00    +0.000 A 
ATOM      3  C   UNL     1      -1.182  -0.735   0.120  0.00  0.00    +0.000 A 
ATOM      4  N   UNL     1      -1.132  -2.058   0.005  0.00  0.00    +0.000 NA
ATOM      5  C   UNL     1       0.030  -2.682  -0.111  0.00  0.00    +0.000 A 
ATOM      6  N   UNL     1       1.177  -2.019  -0.122  0.00  0.00    +0.000 NA
ATOM      7  N   UNL     1       0.047  -4.061  -0.223  0.00  0.00    +0.000 N 
ATOM      8  H   UNL     1      -0.837  -4.590  -0.216  0.00  0.00    +0.000 HD
ENDROOT
BRANCH   7   9
ATOM      9  N   UNL     1       1.237  -4.722  -0.343  0.00  0.00    +0.000 NA
ATOM     10  H   UNL     1       1.784  -4.436   0.482  0.00  0.00    +0.000 HD
ATOM     11  H   UNL     1       1.691  -4.304  -1.167  0.00  0.00    +0.000 HD
ENDBRANCH   7   9
BRANCH   2  12
ATOM     12  N   UNL     1      -0.000   1.467   0.226  0.00  0.00    +0.000 N 
ATOM     13  O   UNL     1       1.049   2.077   0.330  0.00  0.00    +0.000 OA
ATOM     14  O   UNL     1      -1.058   2.071   0.217  0.00  0.00    +0.000 OA
ENDBRANCH   2  12
BRANCH   3  15
ATOM     15  N   UNL     1      -2.399  -0.086   0.247  0.00  0.00    +0.000 N 
ATOM     16  H   UNL     1      -2.436   0.868   0.633  0.00  0.00    +0.000 HD
BRANCH  15  17
ATOM     17  N   UNL     1      -3.550  -0.710  -0.141  0.00  0.00    +0.000 NA
ATOM     18  H   UNL     1      -3.570  -1.588   0.397  0.00  0.00    +0.000 HD
ATOM     19  H   UNL     1      -3.396  -0.964  -1.127  0.00  0.00    +0.000 HD
ENDBRANCH  15  17
ENDBRANCH   3  15
TORSDOF 4
ENDMDL
MODEL     1196
REMARK  Name = ZINC31516103
REMARK  5 active torsions:
REMARK  status: ('A' for Active; 'I' for Inactive)
REMARK    1  A    between atoms: C_2  and  O_14
REMARK    2  A    between atoms: C_6  and  C_8
REMARK    3  A    between atoms: C_8  and  CA_9
REMARK    4  A    between atoms: CA_9  and  C_10
REMARK    5  A    between atoms: CA_9  and  N_13
REMARK                            x       y       z     vdW  Elec       q    Type
REMARK                         _______ _______ _______ _____ _____    ______ ____
ROOT
ATOM      1  C   UNL     1       2.867   3.000  -1.744  0.00  0.00    +0.000 A 
ATOM      2  C   UNL     1       3.655   2.747  -2.829  0.00  0.00    +0.000 A 
ATOM      3  C   UNL     1       3.154   1.897  -3.844  0.00  0.00    +0.000 A 
ATOM      4  O   UNL     1       3.824   1.645  -4.832  0.00  0.00    +0.000 OA
ATOM      5  N   UNL     1       1.923   1.365  -3.690  0.00  0.00    +0.000 NA
ATOM      6  C   UNL     1       1.196   1.656  -2.591  0.00  0.00    +0.000 A 
ATOM      7  N   UNL     1       1.654   2.447  -1.659  0.00  0.00    +0.000 NA
ENDROOT
BRANCH   2   8
ATOM      8  O   UNL     1       4.891   3.304  -2.936  0.00  0.00    +0.000 OA
ATOM      9  H   UNL     1       5.364   3.024  -2.112  0.00  0.00    +0.000 HD
ENDBRANCH   2   8
BRANCH   6  10
ATOM     10  C   UNL     1      -0.176   1.053  -2.436  0.00  0.00    +0.000 C 
BRANCH  10  11
ATOM     11  CA  UNL     1      -0.796   1.528  -1.121  0.00  0.00    +0.000 C 
BRANCH  11  12
ATOM     12  N   UNL     1      -0.012   1.005   0.007  0.00  0.00    +0.000 N 
ATOM     13  H1  UNL     1       0.957   1.349  -0.059  0.00  0.00    +0.000 HD
ATOM     14  H2  UNL     1      -0.014  -0.024  -0.021  0.00  0.00    +0.000 HD
ATOM     15  H3  UNL     1      -0.429   1.325   0.893  0.00  0.00    +0.000 HD
ENDBRANCH  11  12
BRANCH  11  16
ATOM     16  C   UNL     1      -2.213   1.026  -1.023  0.00  0.00    +0.000 C 
ATOM     17  O   UNL     1      -2.464   0.050  -0.355  0.00  0.00    +0.000 OA
ATOM     18  OXT UNL     1      -3.198   1.662  -1.677  0.00  0.00    +0.000 OA
ENDBRANCH  11  16
ENDBRANCH  10  11
ENDBRANCH   6  10
TORSDOF 5
ENDMDL
MODEL     1197
REMARK  Name = ZINC27430683
REMARK  1 active torsions:
REMARK  status: ('A' for Active; 'I' for Inactive)
REMARK    1  A    between atoms: N_15  and  O_16
REMARK                            x       y       z     vdW  Elec       q    Type
REMARK                         _______ _______ _______ _____ _____    ______ ____
ROOT
ATOM      1  C   UNL     1       1.141   1.778  -0.424  0.00  0.00    +0.000 A 
ATOM      2  C   UNL     1       1.141   3.172  -0.412  0.00  0.00    +0.000 A 
ATOM      3  C   UNL     1      -0.023   3.869  -0.312  0.00  0.00    +0.000 A 
ATOM      4  C   UNL     1      -1.246   3.177  -0.218  0.00  0.00    +0.000 A 
ATOM      5  C   UNL     1      -1.241   1.761  -0.237  0.00  0.00    +0.000 A 
ATOM      6  C   UNL     1      -0.026   1.078  -0.336  0.00  0.00    +0.000 A 
ATOM      7  N   UNL     1      -2.419   1.077  -0.153  0.00  0.00    +0.000 N 
ATOM      8  O   UNL     1      -2.430  -0.339  -0.166  0.00  0.00    +0.000 OA
ATOM      9  C   UNL     1      -3.581   1.776  -0.059  0.00  0.00    +0.000 A 
ATOM     10  C   UNL     1      -4.831   1.118   0.031  0.00  0.00    +0.000 A 
ATOM     11  N   UNL     1      -5.927   1.854   0.121  0.00  0.00    +0.000 NA
ATOM     12  C   UNL     1      -5.867   3.183   0.129  0.00  0.00    +0.000 A 
ATOM     13  N   UNL     1      -4.729   3.843   0.048  0.00  0.00    +0.000 NA
ATOM     14  C   UNL     1      -3.563   3.186  -0.048  0.00  0.00    +0.000 A 
ATOM     15  N   UNL     1      -2.400   3.848  -0.120  0.00  0.00    +0.000 N 
ATOM     16  N   UNL     1      -7.046   3.901   0.226  0.00  0.00    +0.000 N 
ATOM     17  N   UNL     1      -4.905  -0.261   0.024  0.00  0.00    +0.000 N 
ATOM     18  H   UNL     1      -7.955   3.420   0.291  0.00  0.00    +0.000 HD
ATOM     19  H   UNL     1      -7.012   4.930   0.232  0.00  0.00    +0.000 HD
ATOM     20  H   UNL     1      -4.039  -0.814  -0.048  0.00  0.00    +0.000 HD
ATOM     21  H   UNL     1      -5.818  -0.734   0.090  0.00  0.00    +0.000 HD
ENDROOT
BRANCH  15  22
ATOM     22  O   UNL     1      -2.394   5.066  -0.110  0.00  0.00    +0.000 OA
ATOM     23  H   UNL     1      -1.929   5.326  -0.944  0.00  0.00    +0.000 HD
ENDBRANCH  15  22
TORSDOF 1
ENDMDL
MODEL     1198
REMARK  Name = ZINC20330021
REMARK  1 active torsions:
REMARK  status: ('A' for Active; 'I' for Inactive)
REMARK    1  A    between atoms: N_7  and  O_8
REMARK                            x       y       z     vdW  Elec       q    Type
REMARK                         _______ _______ _______ _____ _____    ______ ____
ROOT
ATOM      1  C   UNL     1       1.073   3.397   0.010  0.00  0.00    +0.000 C 
ATOM      2  N   UNL     1       1.091   2.072   0.003  0.00  0.00    +0.000 NA
ATOM      3  N   UNL     1      -0.017   1.412   0.010  0.00  0.00    +0.000 N 
ATOM      4  O   UNL     1       0.002  -0.004   0.002  0.00  0.00    +0.000 OA
ATOM      5  C   UNL     1      -1.184   2.064   0.019  0.00  0.00    +0.000 C 
ATOM      6  N   UNL     1      -1.202   3.389   0.031  0.00  0.00    +0.000 NA
ATOM      7  N   UNL     1      -0.093   4.049   0.025  0.00  0.00    +0.000 N 
ATOM      8  N   UNL     1      -2.373   1.356   0.021  0.00  0.00    +0.000 N 
ATOM      9  N   UNL     1       2.262   4.105   0.003  0.00  0.00    +0.000 N 
ATOM     10  H   UNL     1      -2.359   0.326   0.015  0.00  0.00    +0.000 HD
ATOM     11  H   UNL     1      -3.272   1.859   0.028  0.00  0.00    +0.000 HD
ATOM     12  H   UNL     1       2.248   5.135   0.009  0.00  0.00    +0.000 HD
ATOM     13  H   UNL     1       3.161   3.602  -0.008  0.00  0.00    +0.000 HD
ENDROOT
BRANCH   7  14
ATOM     14  O   UNL     1      -0.113   5.465   0.033  0.00  0.00    +0.000 OA
ATOM     15  H   UNL     1       0.404   5.735  -0.767  0.00  0.00    +0.000 HD
ENDBRANCH   7  14
TORSDOF 1
ENDMDL
MODEL     1199
REMARK  Name = ZINC17669880
REMARK  5 active torsions:
REMARK  status: ('A' for Active; 'I' for Inactive)
REMARK    1  A    between atoms: C_2  and  C_18
REMARK    2  A    between atoms: C_3  and  N_17
REMARK    3  A    between atoms: C_5  and  S_7
REMARK    4  A    between atoms: S_7  and  C_8
REMARK    5  A    between atoms: C_8  and  C_9
REMARK                            x       y       z     vdW  Elec       q    Type
REMARK                         _______ _______ _______ _____ _____    ______ ____
ROOT
ATOM      1  C   UNL     1       3.106   4.020  -0.006  0.00  0.00    +0.000 C 
ENDROOT
BRANCH   1   2
ATOM      2  C   UNL     1       4.235   5.018  -0.011  0.00  0.00    +0.000 A 
ATOM      3  N   UNL     1       4.736   5.453   1.132  0.00  0.00    +0.000 NA
ATOM      4  C   UNL     1       5.736   6.331   1.131  0.00  0.00    +0.000 A 
ATOM      5  N   UNL     1       6.224   6.778  -0.021  0.00  0.00    +0.000 NA
ATOM      6  C   UNL     1       5.715   6.343  -1.168  0.00  0.00    +0.000 A 
ATOM      7  N   UNL     1       4.718   5.461  -1.159  0.00  0.00    +0.000 NA
ATOM      8  N   UNL     1       6.218   6.804  -2.367  0.00  0.00    +0.000 N 
ATOM      9  N   UNL     1       6.262   6.780   2.325  0.00  0.00    +0.000 N 
ATOM     10  H   UNL     1       6.989   7.487  -2.373  0.00  0.00    +0.000 HD
ATOM     11  H   UNL     1       5.822   6.467  -3.256  0.00  0.00    +0.000 HD
ATOM     12  H   UNL     1       5.880   6.435   3.217  0.00  0.00    +0.000 HD
ATOM     13  H   UNL     1       7.037   7.459   2.324  0.00  0.00    +0.000 HD
ENDBRANCH   1   2
BRANCH   1  14
ATOM     14  S   UNL     1       3.784   2.342  -0.021  0.00  0.00    +0.000 S 
BRANCH  14  19
ATOM     15  C   UNL     1      -0.017   1.395   0.010  0.00  0.00    +0.000 A 
ATOM     16  C   UNL     1       0.002  -0.004   0.002  0.00  0.00    +0.000 A 
ATOM     17  C   UNL     1       1.256  -0.654  -0.013  0.00  0.00    +0.000 A 
ATOM     18  N   UNL     1       2.359   0.085  -0.020  0.00  0.00    +0.000 NA
ATOM     19  C   UNL     1       2.289   1.408  -0.012  0.00  0.00    +0.000 A 
ATOM     20  N   UNL     1       1.128   2.053   0.002  0.00  0.00    +0.000 NA
BRANCH  17  21
ATOM     21  N   UNL     1       1.333  -2.031  -0.022  0.00  0.00    +0.000 N 
ATOM     22  H   UNL     1       0.467  -2.589  -0.017  0.00  0.00    +0.000 HD
ATOM     23  H   UNL     1       2.250  -2.501  -0.033  0.00  0.00    +0.000 HD
ENDBRANCH  17  21
BRANCH  16  24
ATOM     24  C   UNL     1      -1.216  -0.756   0.009  0.00  0.00    +0.000 C 
ATOM     25  N   UNL     1      -2.183  -1.353   0.015  0.00  0.00    +0.000 NA
ENDBRANCH  16  24
ENDBRANCH  14  19
ENDBRANCH   1  14
TORSDOF 5
ENDMDL
MODEL     1200
REMARK  Name = ZINC25174708
REMARK  3 active torsions:
REMARK  status: ('A' for Active; 'I' for Inactive)
REMARK    1  A    between atoms: C_3  and  C_16
REMARK    2  A    between atoms: C_5  and  N_7
REMARK    3  A    between atoms: N_7  and  N_8
REMARK                            x       y       z     vdW  Elec       q    Type
REMARK                         _______ _______ _______ _____ _____    ______ ____
ROOT
ATOM      1  N   UNL     1       1.058   5.900   0.020  0.00  0.00    +0.000 NA
ATOM      2  C   UNL     1       1.051   7.212   0.026  0.00  0.00    +0.000 C 
ATOM      3  C   UNL     1      -0.131   8.103   0.035  0.00  0.00    +0.000 C 
ATOM      4  N   UNL     1      -1.383   7.733   0.038  0.00  0.00    +0.000 NA
ATOM      5  N   UNL     1       0.341   9.398   0.042  0.00  0.00    +0.000 N 
ATOM      6  N   UNL     1       1.736   9.406   0.029  0.00  0.00    +0.000 N 
ATOM      7  C   UNL     1       2.222   8.116   0.018  0.00  0.00    +0.000 C 
ATOM      8  N   UNL     1       3.478   7.760   0.005  0.00  0.00    +0.000 NA
ATOM      9  H   UNL     1      -1.536   6.714   0.035  0.00  0.00    +0.000 HD
ATOM     10  H   UNL     1      -0.252  10.240   0.056  0.00  0.00    +0.000 HD
ATOM     11  H   UNL     1       2.320  10.255   0.027  0.00  0.00    +0.000 HD
ATOM     12  H   UNL     1       3.642   6.743  -0.002  0.00  0.00    +0.000 HD
ENDROOT
BRANCH   1  13
ATOM     13  N   UNL     1      -0.056   5.249   0.028  0.00  0.00    +0.000 N 
ATOM     14  H   UNL     1      -0.950   5.759   0.039  0.00  0.00    +0.000 HD
BRANCH  13  19
ATOM     15  C   UNL     1       1.173   1.782   0.000  0.00  0.00    +0.000 A 
ATOM     16  C   UNL     1      -0.013   1.076   0.008  0.00  0.00    +0.000 A 
ATOM     17  C   UNL     1      -1.231   1.757   0.017  0.00  0.00    +0.000 A 
ATOM     18  C   UNL     1      -1.245   3.152   0.030  0.00  0.00    +0.000 A 
ATOM     19  C   UNL     1      -0.048   3.853   0.022  0.00  0.00    +0.000 A 
ATOM     20  C   UNL     1       1.161   3.164   0.007  0.00  0.00    +0.000 A 
BRANCH  17  21
ATOM     21  C   UNL     1      -2.502   1.004   0.020  0.00  0.00    +0.000 C 
ATOM     22  O   UNL     1      -3.561   1.599   0.028  0.00  0.00    +0.000 OA
ATOM     23  O   UNL     1      -2.486  -0.343   0.013  0.00  0.00    +0.000 OA
ENDBRANCH  17  21
ENDBRANCH  13  19
ENDBRANCH   1  13
TORSDOF 3
ENDMDL
