BDB4934
  SciTegic07061217153D

 43 43  0  0  0  0            999 V2000
    1.1806   -0.6735    0.3896 C   0  0  1  0  0  0
    0.0096   -1.4489   -0.1829 C   0  0  2  0  0  0
   -1.2300   -0.6598    0.0297 C   0  0
   -1.2010    0.6741    0.1184 C   0  0
   -2.4552    1.3856    0.3699 C   0  0
   -2.4581    2.6179    0.4693 O   0  0
   -3.6165    0.6914    0.4941 O   0  5
   -0.0030    1.4316    0.0070 O   0  0
   -0.2995   -2.8964    1.8491 C   0  0
   -0.0994   -2.7457    0.4577 N   0  0
   -0.3856   -4.0646    2.3411 N   0  3
   -0.4051   -1.7863    2.6972 N   0  0
    2.4211   -1.3982    0.0816 N   0  0
    2.8961   -1.7590   -1.2270 C   0  0
    2.1537   -1.4277   -2.5068 C   0  0
    3.9661   -2.3715   -1.3127 O   0  0
    2.4279    1.4864    0.0869 C   0  0  2  0  0  0
    3.6035    0.7508   -0.2603 O   0  0
    2.4275    1.7513    1.6088 C   0  0  1  0  0  0
    3.6878    2.5500    1.9841 C   0  0
    1.2690    2.5038    1.9767 O   0  0
    3.6917    2.7990    3.3917 O   0  0
    1.1815    0.6693   -0.3181 C   0  0  1  0  0  0
    1.1054   -0.5494    1.4800 H   0  0
    0.1637   -1.6153   -1.2592 H   0  0
   -2.1933   -1.1839    0.1161 H   0  0
   -0.0279   -3.5918   -0.1252 H   0  0
   -0.3108   -4.8948    1.7360 H   0  0
   -0.5314   -4.1804    3.3541 H   0  0
   -0.3345   -0.8417    2.2926 H   0  0
   -0.5509   -1.9091    3.7094 H   0  0
    3.0081   -1.6750    0.8814 H   0  0
    2.0232   -0.3369   -2.4514 H   0  0
    1.1573   -1.8646   -2.3445 H   0  0
    2.6350   -1.7656   -3.4364 H   0  0
    2.4113    2.4499   -0.4434 H   0  0
    3.6194    0.5890   -1.2369 H   0  0
    2.4176    0.7890    2.1415 H   0  0
    4.5831    1.9718    1.7120 H   0  0
    3.6911    3.5077    1.4430 H   0  0
    0.4571    1.9937    1.7302 H   0  0
    3.6899    1.9380    3.8803 H   0  0
    1.1962    0.4743   -1.4006 H   0  0
  8 23  1  0
  8  4  1  0
 23  1  1  0
  1  2  1  0
  2  3  1  0
  3  4  2  0
  4  5  1  0
  5  6  2  0
  5  7  1  0
  2 10  1  0
 10  9  1  0
  9 12  1  0
  9 11  2  0
  1 13  1  0
 13 14  1  0
 14 15  1  0
 14 16  2  0
 23 17  1  0
 17 19  1  0
 17 18  1  0
 19 20  1  0
 20 22  1  0
 19 21  1  0
  1 24  1  0
  2 25  1  0
  3 26  1  0
 10 27  1  0
 11 28  1  0
 11 29  1  0
 12 30  1  0
 12 31  1  0
 13 32  1  0
 15 33  1  0
 15 34  1  0
 15 35  1  0
 17 36  1  0
 18 37  1  0
 19 38  1  0
 20 39  1  0
 20 40  1  0
 21 41  1  0
 22 42  1  0
 23 43  1  0
M  CHG  2   7  -1  11   1
M  END
> <Name>
BDB4934

> <Target>
Neuraminidase A

> <Ki_in_nM>
 1

> <IC50_in_nM>
 2

> <Kd_from_ITC>
false

> <source_organism>
Influenza A virus (A/Singapore/1/57(H2N2))

> <SourceTag>
NA

$$$$
BDB5204
  SciTegic07061217153D

 46 46  0  0  0  0            999 V2000
    0.6710   -0.9948    0.4276 C   0  0
   -0.6612   -0.9937   -0.2758 C   0  0  2  0  0  0
   -0.0042    1.2789   -0.0640 N   0  3
    1.1826    0.3618   -0.0908 C   0  0  1  0  0  0
    2.3389    0.8789    0.7160 C   0  0
    2.1994    1.0960    1.9248 O   0  0
    3.5383    1.1023    0.1191 O   0  5
   -1.1564    0.3709    0.1832 C   0  0  1  0  0  0
   -1.6716    1.5715   -0.7295 C   0  0  2  0  0  0
   -3.0123    2.1760    0.0396 C   0  0
   -2.0813    3.4121   -0.1470 C   0  0
   -2.7166    4.6189    0.5638 C   0  0
   -1.8935    3.7701   -1.6374 C   0  0
   -2.2325    0.8779   -1.9630 N   0  0
   -3.2943    0.7703   -2.8835 C   0  0
   -4.7012    0.5009   -2.4141 C   0  0
   -3.0674    0.8879   -4.0899 O   0  0
   -1.5637   -2.1022    0.1867 C   0  0
   -1.8481   -2.2297    1.4808 C   0  0
   -1.2680   -1.2676    2.4753 C   0  0
    1.3055   -1.8155    0.0617 H   0  0
    0.5365   -0.9696    1.5190 H   0  0
   -0.6191   -1.1531   -1.3633 H   0  0
    0.0869    1.9548    0.7079 H   0  0
   -0.1117    1.7485   -0.9744 H   0  0
    1.5868    0.2764   -1.1103 H   0  0
   -1.4555    0.3659    1.2417 H   0  0
   -0.8900    2.3219   -0.9194 H   0  0
   -3.9795    2.3903   -0.4385 H   0  0
   -3.2102    2.0455    1.1137 H   0  0
   -1.0971    3.1646    0.2774 H   0  0
   -2.8283    4.4049    1.6370 H   0  0
   -3.7022    4.8350    0.1258 H   0  0
   -2.0655    5.4963    0.4370 H   0  0
   -2.8815    3.9838   -2.0713 H   0  0
   -1.4593    2.9005   -2.1523 H   0  0
   -1.2341    4.6439   -1.7450 H   0  0
   -1.2730    1.0004   -2.3169 H   0  0
   -4.9153    1.3100   -1.7003 H   0  0
   -4.6260   -0.4287   -1.8309 H   0  0
   -5.4448    0.4378   -3.2222 H   0  0
   -1.9887   -2.8072   -0.5429 H   0  0
   -2.5086   -3.0407    1.8213 H   0  0
   -1.5847   -0.2720    2.1309 H   0  0
   -0.1788   -1.3312    2.3355 H   0  0
   -1.5705   -1.4686    3.5136 H   0  0
  3  4  1  0
  3  8  1  0
  4  1  1  0
  1  2  1  0
  2  8  1  0
  2 18  1  0
  4  5  1  0
  5  6  2  0
  5  7  1  0
  8  9  1  0
  9 10  1  0
 10 11  1  0
 11 12  1  0
 11 13  1  0
  9 14  1  0
 14 15  1  0
 15 16  1  0
 15 17  2  0
 18 19  2  0
 19 20  1  0
  1 21  1  0
  1 22  1  0
  2 23  1  0
  3 24  1  0
  3 25  1  0
  4 26  1  0
  8 27  1  0
  9 28  1  0
 10 29  1  0
 10 30  1  0
 11 31  1  0
 12 32  1  0
 12 33  1  0
 12 34  1  0
 13 35  1  0
 13 36  1  0
 13 37  1  0
 14 38  1  0
 16 39  1  0
 16 40  1  0
 16 41  1  0
 18 42  1  0
 19 43  1  0
 20 44  1  0
 20 45  1  0
 20 46  1  0
M  CHG  2   3   1   7  -1
M  END
> <Name>
BDB5204

> <Target>
Neuraminidase A

> <Ki_in_nM>
 20

> <Kd_from_ITC>
false

> <Uniprot_ID>
P06820

> <source_organism>
Influenza A virus (A/Tokyo/3/67(H2N2))

> <SourceTag>
NA

$$$$
BDB5200
  SciTegic07061217153D

 46 47  0  0  0  0            999 V2000
    0.6710   -0.9948    0.4276 C   0  0
   -0.6612   -0.9937   -0.2758 C   0  0  2  0  0  0
   -0.0042    1.2789   -0.0640 N   0  3
    1.1826    0.3618   -0.0908 C   0  0  1  0  0  0
    2.3389    0.8789    0.7160 C   0  0
    2.1994    1.0960    1.9248 O   0  0
    3.5383    1.1023    0.1191 O   0  5
   -1.1564    0.3709    0.1832 C   0  0  1  0  0  0
   -1.6716    1.5715   -0.7295 C   0  0  2  0  0  0
   -3.0123    2.1760    0.0396 C   0  0
   -2.0813    3.4121   -0.1470 C   0  0
   -2.7166    4.6189    0.5638 C   0  0
   -1.8935    3.7701   -1.6374 C   0  0
   -2.2325    0.8779   -1.9630 N   0  0
   -3.2943    0.7703   -2.8835 C   0  0
   -4.7012    0.5009   -2.4141 C   0  0
   -3.0674    0.8879   -4.0899 O   0  0
   -1.5664   -2.1049    0.1925 C   0  0
   -2.3192   -3.9231    1.0684 C   0  0
   -2.8688   -2.1404    0.0121 N   0  0
   -3.3110   -3.2138    0.5296 N   0  0
   -1.1407   -3.2215    0.8665 C   0  0
    1.3055   -1.8155    0.0617 H   0  0
    0.5365   -0.9696    1.5190 H   0  0
   -0.6195   -1.1536   -1.3633 H   0  0
    0.0869    1.9548    0.7079 H   0  0
   -0.1117    1.7485   -0.9744 H   0  0
    1.5868    0.2764   -1.1103 H   0  0
   -1.4555    0.3659    1.2417 H   0  0
   -0.8900    2.3219   -0.9194 H   0  0
   -3.9795    2.3903   -0.4385 H   0  0
   -3.2102    2.0455    1.1137 H   0  0
   -1.0971    3.1646    0.2774 H   0  0
   -2.8283    4.4049    1.6370 H   0  0
   -3.7022    4.8350    0.1258 H   0  0
   -2.0655    5.4963    0.4370 H   0  0
   -2.8815    3.9838   -2.0713 H   0  0
   -1.4593    2.9005   -2.1523 H   0  0
   -1.2341    4.6439   -1.7450 H   0  0
   -1.2730    1.0004   -2.3169 H   0  0
   -4.9153    1.3100   -1.7003 H   0  0
   -4.6260   -0.4287   -1.8309 H   0  0
   -5.4448    0.4378   -3.2222 H   0  0
   -2.4182   -4.8913    1.5810 H   0  0
   -4.3012   -3.4971    0.5322 H   0  0
   -0.1190   -3.4924    1.1709 H   0  0
  3  4  1  0
  3  8  1  0
  4  1  1  0
  1  2  1  0
  2  8  1  0
  2 18  1  0
  4  5  1  0
  5  6  2  0
  5  7  1  0
  8  9  1  0
  9 10  1  0
 10 11  1  0
 11 12  1  0
 11 13  1  0
  9 14  1  0
 14 15  1  0
 15 16  1  0
 15 17  2  0
 22 18  1  0
 18 20  2  0
 21 20  1  0
 19 22  2  0
 19 21  1  0
  1 23  1  0
  1 24  1  0
  2 25  1  0
  3 26  1  0
  3 27  1  0
  4 28  1  0
  8 29  1  0
  9 30  1  0
 10 31  1  0
 10 32  1  0
 11 33  1  0
 12 34  1  0
 12 35  1  0
 12 36  1  0
 13 37  1  0
 13 38  1  0
 13 39  1  0
 14 40  1  0
 16 41  1  0
 16 42  1  0
 16 43  1  0
 19 44  1  0
 21 45  1  0
 22 46  1  0
M  CHG  2   3   1   7  -1
M  END
> <Name>
BDB5200

> <Target>
Neuraminidase A

> <Ki_in_nM>
 45

> <Kd_from_ITC>
false

> <Uniprot_ID>
P06820

> <source_organism>
Influenza A virus (A/Tokyo/3/67(H2N2))

> <SourceTag>
NA

$$$$
BDB5195
  SciTegic07061217153D

 45 45  0  0  0  0            999 V2000
    0.6710   -0.9948    0.4276 C   0  0
   -0.6612   -0.9937   -0.2758 C   0  0  2  0  0  0
   -0.0042    1.2789   -0.0640 N   0  3
    1.1826    0.3618   -0.0908 C   0  0  1  0  0  0
    2.3389    0.8789    0.7160 C   0  0
    2.1994    1.0960    1.9248 O   0  0
    3.5383    1.1023    0.1191 O   0  5
   -1.1564    0.3709    0.1832 C   0  0  1  0  0  0
   -1.6716    1.5715   -0.7295 C   0  0  2  0  0  0
   -3.0123    2.1760    0.0396 C   0  0
   -2.0813    3.4121   -0.1470 C   0  0
   -2.7166    4.6189    0.5638 C   0  0
   -1.8935    3.7701   -1.6374 C   0  0
   -2.2325    0.8779   -1.9630 N   0  0
   -3.2943    0.7703   -2.8835 C   0  0
   -4.7012    0.5009   -2.4141 C   0  0
   -3.0674    0.8879   -4.0899 O   0  0
   -1.5626   -2.1012    0.1846 C   0  0
   -2.0380   -2.8935   -0.6382 O   0  0
   -2.7313   -3.3511    1.7345 C   0  0
   -1.8613   -2.2338    1.5377 O   0  0
    1.3055   -1.8155    0.0617 H   0  0
    0.5365   -0.9696    1.5190 H   0  0
   -0.6189   -1.1529   -1.3634 H   0  0
    0.0869    1.9548    0.7079 H   0  0
   -0.1117    1.7485   -0.9744 H   0  0
    1.5868    0.2764   -1.1103 H   0  0
   -1.4555    0.3659    1.2417 H   0  0
   -0.8900    2.3219   -0.9194 H   0  0
   -3.9795    2.3903   -0.4385 H   0  0
   -3.2102    2.0455    1.1137 H   0  0
   -1.0971    3.1646    0.2774 H   0  0
   -2.8283    4.4049    1.6370 H   0  0
   -3.7022    4.8350    0.1258 H   0  0
   -2.0655    5.4963    0.4370 H   0  0
   -2.8815    3.9838   -2.0713 H   0  0
   -1.4593    2.9005   -2.1523 H   0  0
   -1.2341    4.6439   -1.7450 H   0  0
   -1.2730    1.0004   -2.3169 H   0  0
   -4.9153    1.3100   -1.7003 H   0  0
   -4.6260   -0.4287   -1.8309 H   0  0
   -5.4448    0.4378   -3.2222 H   0  0
   -2.2366   -4.2664    1.3773 H   0  0
   -3.6610   -3.1942    1.1679 H   0  0
   -2.9657   -3.4536    2.8043 H   0  0
  3  4  1  0
  3  8  1  0
  4  1  1  0
  1  2  1  0
  2  8  1  0
  2 18  1  0
  4  5  1  0
  5  6  2  0
  5  7  1  0
  8  9  1  0
  9 10  1  0
 10 11  1  0
 11 12  1  0
 11 13  1  0
  9 14  1  0
 14 15  1  0
 15 16  1  0
 15 17  2  0
 18 19  2  0
 18 21  1  0
 21 20  1  0
  1 22  1  0
  1 23  1  0
  2 24  1  0
  3 25  1  0
  3 26  1  0
  4 27  1  0
  8 28  1  0
  9 29  1  0
 10 30  1  0
 10 31  1  0
 11 32  1  0
 12 33  1  0
 12 34  1  0
 12 35  1  0
 13 36  1  0
 13 37  1  0
 13 38  1  0
 14 39  1  0
 16 40  1  0
 16 41  1  0
 16 42  1  0
 20 43  1  0
 20 44  1  0
 20 45  1  0
M  CHG  2   3   1   7  -1
M  END
> <Name>
BDB5195

> <Target>
Neuraminidase A

> <Ki_in_nM>
 260

> <Kd_from_ITC>
false

> <Uniprot_ID>
P06820

> <source_organism>
Influenza A virus (A/Tokyo/3/67(H2N2))

> <SourceTag>
NA

$$$$
BDB5198
  SciTegic07061217153D

 45 46  0  0  0  0            999 V2000
    0.6710   -0.9948    0.4276 C   0  0
   -0.6612   -0.9937   -0.2758 C   0  0  2  0  0  0
   -0.0042    1.2789   -0.0640 N   0  3
    1.1826    0.3618   -0.0908 C   0  0  1  0  0  0
    2.3389    0.8789    0.7160 C   0  0
    2.1994    1.0960    1.9248 O   0  0
    3.5383    1.1023    0.1191 O   0  5
   -1.1564    0.3709    0.1832 C   0  0  1  0  0  0
   -1.6716    1.5715   -0.7295 C   0  0  2  0  0  0
   -3.0123    2.1760    0.0396 C   0  0
   -2.0813    3.4121   -0.1470 C   0  0
   -2.7166    4.6189    0.5638 C   0  0
   -1.8935    3.7701   -1.6374 C   0  0
   -2.2325    0.8779   -1.9630 N   0  0
   -3.2943    0.7703   -2.8835 C   0  0
   -4.7012    0.5009   -2.4141 C   0  0
   -3.0674    0.8879   -4.0899 O   0  0
   -1.5641   -2.1019    0.1911 C   0  0
   -3.3944   -3.5351    0.7614 C   0  0
   -2.1331   -4.0557    1.0478 C   0  0
   -1.1325   -3.2356    0.7196 N   0  0
   -3.2229   -2.0114    0.0821 S   0  0
    1.3055   -1.8155    0.0617 H   0  0
    0.5365   -0.9696    1.5190 H   0  0
   -0.6195   -1.1536   -1.3633 H   0  0
    0.0869    1.9548    0.7079 H   0  0
   -0.1117    1.7485   -0.9744 H   0  0
    1.5868    0.2764   -1.1103 H   0  0
   -1.4555    0.3659    1.2417 H   0  0
   -0.8900    2.3219   -0.9194 H   0  0
   -3.9795    2.3903   -0.4385 H   0  0
   -3.2102    2.0455    1.1137 H   0  0
   -1.0971    3.1646    0.2774 H   0  0
   -2.8283    4.4049    1.6370 H   0  0
   -3.7022    4.8350    0.1258 H   0  0
   -2.0655    5.4963    0.4370 H   0  0
   -2.8815    3.9838   -2.0713 H   0  0
   -1.4593    2.9005   -2.1523 H   0  0
   -1.2341    4.6439   -1.7450 H   0  0
   -1.2730    1.0004   -2.3169 H   0  0
   -4.9153    1.3100   -1.7003 H   0  0
   -4.6260   -0.4287   -1.8309 H   0  0
   -5.4448    0.4378   -3.2222 H   0  0
   -4.3512   -4.0437    0.9511 H   0  0
   -1.9776   -5.0461    1.5004 H   0  0
  3  4  1  0
  3  8  1  0
  4  1  1  0
  1  2  1  0
  2  8  1  0
  2 18  1  0
  4  5  1  0
  5  6  2  0
  5  7  1  0
  8  9  1  0
  9 10  1  0
 10 11  1  0
 11 12  1  0
 11 13  1  0
  9 14  1  0
 14 15  1  0
 15 16  1  0
 15 17  2  0
 21 18  2  0
 18 22  1  0
 19 20  2  0
 19 22  1  0
 20 21  1  0
  1 23  1  0
  1 24  1  0
  2 25  1  0
  3 26  1  0
  3 27  1  0
  4 28  1  0
  8 29  1  0
  9 30  1  0
 10 31  1  0
 10 32  1  0
 11 33  1  0
 12 34  1  0
 12 35  1  0
 12 36  1  0
 13 37  1  0
 13 38  1  0
 13 39  1  0
 14 40  1  0
 16 41  1  0
 16 42  1  0
 16 43  1  0
 19 44  1  0
 20 45  1  0
M  CHG  2   3   1   7  -1
M  END
> <Name>
BDB5198

> <Target>
Neuraminidase A

> <Ki_in_nM>
 310

> <Kd_from_ITC>
false

> <Uniprot_ID>
P06820

> <source_organism>
Influenza A virus (A/Tokyo/3/67(H2N2))

> <SourceTag>
NA

$$$$
BDB5199
  SciTegic07061217153D

 46 47  0  0  0  0            999 V2000
    0.6710   -0.9948    0.4276 C   0  0
   -0.6612   -0.9937   -0.2758 C   0  0  2  0  0  0
   -0.0042    1.2789   -0.0640 N   0  3
    1.1826    0.3618   -0.0908 C   0  0  1  0  0  0
    2.3389    0.8789    0.7160 C   0  0
    2.1994    1.0960    1.9248 O   0  0
    3.5383    1.1023    0.1191 O   0  5
   -1.1564    0.3709    0.1832 C   0  0  1  0  0  0
   -1.6716    1.5715   -0.7295 C   0  0  2  0  0  0
   -3.0123    2.1760    0.0396 C   0  0
   -2.0813    3.4121   -0.1470 C   0  0
   -2.7166    4.6189    0.5638 C   0  0
   -1.8935    3.7701   -1.6374 C   0  0
   -2.2325    0.8779   -1.9630 N   0  0
   -3.2943    0.7703   -2.8835 C   0  0
   -4.7012    0.5009   -2.4141 C   0  0
   -3.0674    0.8879   -4.0899 O   0  0
   -1.5639   -2.1018    0.1908 C   0  0
   -3.3184   -3.2295    0.5608 C   0  0
   -2.2192   -3.9167    1.0644 C   0  0
   -2.8710   -2.1019    0.0231 N   0  0
   -1.1423   -3.1826    0.8152 N   0  0
    1.3055   -1.8155    0.0617 H   0  0
    0.5365   -0.9696    1.5190 H   0  0
   -0.6194   -1.1536   -1.3633 H   0  0
    0.0869    1.9548    0.7079 H   0  0
   -0.1117    1.7485   -0.9744 H   0  0
    1.5868    0.2764   -1.1103 H   0  0
   -1.4555    0.3659    1.2417 H   0  0
   -0.8900    2.3219   -0.9194 H   0  0
   -3.9795    2.3903   -0.4385 H   0  0
   -3.2102    2.0455    1.1137 H   0  0
   -1.0971    3.1646    0.2774 H   0  0
   -2.8283    4.4049    1.6370 H   0  0
   -3.7022    4.8350    0.1258 H   0  0
   -2.0655    5.4963    0.4370 H   0  0
   -2.8815    3.9838   -2.0713 H   0  0
   -1.4593    2.9005   -2.1523 H   0  0
   -1.2341    4.6439   -1.7450 H   0  0
   -1.2730    1.0004   -2.3169 H   0  0
   -4.9153    1.3100   -1.7003 H   0  0
   -4.6260   -0.4287   -1.8309 H   0  0
   -5.4448    0.4378   -3.2222 H   0  0
   -4.3668   -3.5602    0.6008 H   0  0
   -2.2389   -4.8904    1.5757 H   0  0
   -0.1689   -3.4123    1.0613 H   0  0
  3  4  1  0
  3  8  1  0
  4  1  1  0
  1  2  1  0
  2  8  1  0
  2 18  1  0
  4  5  1  0
  5  6  2  0
  5  7  1  0
  8  9  1  0
  9 10  1  0
 10 11  1  0
 11 12  1  0
 11 13  1  0
  9 14  1  0
 14 15  1  0
 15 16  1  0
 15 17  2  0
 22 18  1  0
 18 21  2  0
 19 20  2  0
 19 21  1  0
 20 22  1  0
  1 23  1  0
  1 24  1  0
  2 25  1  0
  3 26  1  0
  3 27  1  0
  4 28  1  0
  8 29  1  0
  9 30  1  0
 10 31  1  0
 10 32  1  0
 11 33  1  0
 12 34  1  0
 12 35  1  0
 12 36  1  0
 13 37  1  0
 13 38  1  0
 13 39  1  0
 14 40  1  0
 16 41  1  0
 16 42  1  0
 16 43  1  0
 19 44  1  0
 20 45  1  0
 22 46  1  0
M  CHG  2   3   1   7  -1
M  END
> <Name>
BDB5199

> <Target>
Neuraminidase A

> <Ki_in_nM>
 350

> <Kd_from_ITC>
false

> <Uniprot_ID>
P06820

> <source_organism>
Influenza A virus (A/Tokyo/3/67(H2N2))

> <SourceTag>
NA

$$$$
BDB5003
  SciTegic07061217153D

 54 55  0  0  0  0            999 V2000
    1.0663   -0.8750   -0.3248 C   0  0
    1.1408    0.6245   -0.2866 C   0  0  2  0  0  0
   -0.1524    1.2323    0.4445 C   0  0  1  0  0  0
   -1.4949    0.5580    0.0362 C   0  0  2  0  0  0
   -1.4176   -0.9374    0.3322 C   0  0
   -0.0611   -1.5771   -0.0984 C   0  0
    0.0414   -3.0273   -0.1384 C   0  0
    1.1393   -3.5586   -0.3417 O   0  0
   -1.0505   -3.7916    0.1010 O   0  5
   -1.8266    0.6878   -1.3127 N   0  3
   -0.1113    1.2561    1.9826 N   0  0
    0.0202    0.1942    2.9995 C   0  0
    0.5978   -1.1800    2.8174 C   0  0
   -0.2946    0.5033    4.1544 O   0  0
    1.5393    1.1144   -1.6979 O   0  0
    0.8603    0.6145   -2.8990 C   0  0  2  0  0  0
    1.8185    0.3126   -4.0419 C   0  0
    0.9091   -0.3993   -5.0717 C   0  0
    1.3227   -0.1390   -6.4722 C   0  0
    0.8978   -0.4464   -8.8223 C   0  0
    1.9826    0.3828   -9.1146 C   0  0
    2.7257    0.9421   -8.0904 C   0  0
    2.3853    0.6820   -6.7586 C   0  0
    0.5678   -0.7105   -7.5100 C   0  0
   -0.1342    1.6683   -3.4909 C   0  0
    0.5833    2.9812   -3.8408 C   0  0
    1.9617   -1.4179   -0.5449 H   0  0
    1.9956    0.9560    0.3200 H   0  0
   -0.1853    2.3002    0.1914 H   0  0
   -2.3083    1.0279    0.6025 H   0  0
   -2.2277   -1.4442   -0.1818 H   0  0
   -1.5638   -1.0971    1.3983 H   0  0
   -1.1923    0.1746   -1.8280 H   0  0
   -1.8177    1.6840   -1.5674 H   0  0
   -2.7548    0.2987   -1.4753 H   0  0
   -0.2921    2.1509    2.3689 H   0  0
    1.5854   -0.9212    2.3685 H   0  0
    0.0055   -1.5283    1.9389 H   0  0
    0.6120   -1.7459    3.5645 H   0  0
    0.3540   -0.3241   -2.6668 H   0  0
    2.5655   -0.3389   -3.7190 H   0  0
    2.1835    1.2045   -4.4470 H   0  0
    0.9313   -1.4688   -4.8882 H   0  0
   -0.1119   -0.0661   -4.9367 H   0  0
    0.3232   -0.8763   -9.6159 H   0  0
    2.2397    0.5862  -10.1331 H   0  0
    3.5598    1.5728   -8.3166 H   0  0
    2.9519    1.1221   -5.9647 H   0  0
   -0.2605   -1.3487   -7.2827 H   0  0
   -0.9114    1.8693   -2.7719 H   0  0
   -0.5935    1.2651   -4.3818 H   0  0
    1.3551    2.7677   -4.5563 H   0  0
    1.0367    3.3703   -2.9485 H   0  0
   -0.1025    3.6801   -4.2385 H   0  0
  1  2  1  0
  1  6  2  0
  2  3  1  0
  3  4  1  0
  4  5  1  0
  5  6  1  0
  6  7  1  0
  7  8  2  0
  7  9  1  0
  4 10  1  0
  3 11  1  0
  2 15  1  0
 11 12  1  0
 12 13  1  0
 12 14  2  0
 15 16  1  0
 16 17  1  0
 17 18  1  0
 18 19  1  0
 23 19  2  0
 19 24  1  0
 20 21  1  0
 20 24  2  0
 21 22  2  0
 22 23  1  0
 16 25  1  0
 25 26  1  0
  1 27  1  0
  2 28  1  0
  3 29  1  0
  4 30  1  0
  5 31  1  0
  5 32  1  0
 10 33  1  0
 10 34  1  0
 10 35  1  0
 11 36  1  0
 13 37  1  0
 13 38  1  0
 13 39  1  0
 16 40  1  0
 17 41  1  0
 17 42  1  0
 18 43  1  0
 18 44  1  0
 20 45  1  0
 21 46  1  0
 22 47  1  0
 23 48  1  0
 24 49  1  0
 25 50  1  0
 25 51  1  0
 26 52  1  0
 26 53  1  0
 26 54  1  0
M  CHG  2   9  -1  10   1
M  END
> <Name>
BDB5003

> <Target>
Neuraminidase A

> <IC50_in_nM>
 0.3

> <Kd_from_ITC>
false

> <source_organism>
Influenza A virus (A/Puerto Rico/8/34/Mount Sinai(H1N1))

> <SourceTag>
NA

$$$$
BDB5013
  SciTegic07061217153D

 49 49  0  0  0  0            999 V2000
    1.3735   -0.7874    0.2428 C   0  0
    1.3618    0.7374    0.1459 C   0  0  2  0  0  0
   -0.0607    1.2656    0.3960 C   0  0  1  0  0  0
   -1.1950    0.3730   -0.3173 C   0  0  2  0  0  0
   -1.1400   -1.0017    0.2571 C   0  0
    0.2615   -1.5611    0.2575 C   0  0
    0.3923   -3.0066    0.3363 C   0  0
    1.5093   -3.5305    0.3705 O   0  0
   -0.7274   -3.7787    0.3625 O   0  5
   -0.3608    1.4566    1.9031 N   0  0
   -0.2323    0.5755    3.0972 C   0  0
    0.2391   -0.8475    3.1654 C   0  0
   -0.5342    1.0865    4.1811 O   0  0
   -1.3647    0.2263   -1.8586 N   0  0
   -0.6102   -0.5786   -2.8979 C   0  0
   -1.0780   -0.5581   -4.0866 N   0  3
    0.5799   -1.3707   -2.7376 N   0  0
    2.0395    1.2221   -1.1182 O   0  0
    1.2960    1.4906   -2.3401 C   0  0
    2.3056    1.2785   -3.5355 C   0  0
    1.6420    1.1870   -4.9378 C   0  0
    0.7515    2.9810   -2.3052 C   0  0
   -0.2587    3.3306   -3.4302 C   0  0
    2.3232   -1.2767    0.3031 H   0  0
    2.0106    1.1500    0.9299 H   0  0
   -0.1056    2.2919    0.0334 H   0  0
   -2.1517    0.8191   -0.0095 H   0  0
   -1.7819   -1.6537   -0.3173 H   0  0
   -1.5141   -0.9784    1.2733 H   0  0
   -0.6529    2.3767    2.1308 H   0  0
    1.2124   -0.7475    2.6216 H   0  0
   -0.4272   -1.3018    2.3891 H   0  0
    0.2615   -1.2621    3.9960 H   0  0
   -2.1541    0.7609   -2.2381 H   0  0
   -1.8955   -0.0432   -4.2832 H   0  0
   -0.6155   -1.0729   -4.7992 H   0  0
    1.0593   -1.4123   -1.9044 H   0  0
    0.9900   -1.8283   -3.5588 H   0  0
    0.4520    0.8421   -2.4495 H   0  0
    3.0301    2.1002   -3.5394 H   0  0
    2.8817    0.3674   -3.3574 H   0  0
    1.0802    2.1013   -5.0765 H   0  0
    0.9329    0.3709   -4.8939 H   0  0
    2.3389    1.0492   -5.6820 H   0  0
    0.2775    3.1643   -1.3343 H   0  0
    1.5974    3.6707   -2.3636 H   0  0
   -1.0768    2.6276   -3.3424 H   0  0
    0.2419    3.1334   -4.3693 H   0  0
   -0.5817    4.3046   -3.3653 H   0  0
  1  2  1  0
  1  6  2  0
  2  3  1  0
  3  4  1  0
  4  5  1  0
  5  6  1  0
  6  7  1  0
  7  8  2  0
  7  9  1  0
  4 14  1  0
  3 10  1  0
  2 18  1  0
 10 11  1  0
 11 12  1  0
 11 13  2  0
 14 15  1  0
 15 17  1  0
 15 16  2  0
 18 19  1  0
 19 20  1  0
 19 22  1  0
 20 21  1  0
 22 23  1  0
  1 24  1  0
  2 25  1  0
  3 26  1  0
  4 27  1  0
  5 28  1  0
  5 29  1  0
 10 30  1  0
 12 31  1  0
 12 32  1  0
 12 33  1  0
 14 34  1  0
 16 35  1  0
 16 36  1  0
 17 37  1  0
 17 38  1  0
 19 39  1  0
 20 40  1  0
 20 41  1  0
 21 42  1  0
 21 43  1  0
 21 44  1  0
 22 45  1  0
 22 46  1  0
 23 47  1  0
 23 48  1  0
 23 49  1  0
M  CHG  2   9  -1  16   1
M  END
> <Name>
BDB5013

> <Target>
Neuraminidase A

> <IC50_in_nM>
 0.5

> <Kd_from_ITC>
false

> <source_organism>
Influenza A virus (A/Puerto Rico/8/34/Mount Sinai(H1N1))

> <SourceTag>
NA

$$$$
BDB4942
  SciTegic07061217153D

 47 47  0  0  0  0            999 V2000
    1.1812   -0.7027   -0.0994 C   0  0
   -1.1727    0.6912   -0.4028 C   0  0  2  0  0  0
   -1.2682   -0.7146    0.1627 C   0  0  2  0  0  0
    0.0393   -1.3948   -0.0257 C   0  0
    1.2344    0.7134    0.0074 O   0  0
    2.4278   -1.4326   -0.3356 C   0  0
    3.4971   -0.8184   -0.4238 O   0  0
    2.4096   -2.7856   -0.4579 O   0  5
    0.0704    2.8356   -0.0438 C   0  0
   -0.7210    3.6186    0.4959 O   0  0
   -0.0210    1.3522    0.3296 C   0  0  1  0  0  0
    0.9941    3.3689   -0.9941 N   0  0
   -2.4242    1.4015   -0.1064 N   0  0
   -2.9925    1.6219    1.1962 C   0  0
   -2.3529    1.1332    2.4811 C   0  0
   -4.0585    2.2425    1.2722 O   0  0
   -2.3259   -1.4553   -0.4978 N   0  0
   -2.3327   -1.7008   -1.8900 C   0  0
   -3.2931   -2.3578   -2.4001 N   0  3
   -1.3039   -1.2357   -2.7196 N   0  0
    0.9972    4.7924   -1.2175 C   0  0
    2.4207    5.2824   -1.5586 C   0  0
    1.8803    2.5332   -1.7732 C   0  0
    1.2018    2.1471   -3.1063 C   0  0
   -1.0128    0.6979   -1.4911 H   0  0
   -1.5081   -0.6669    1.2352 H   0  0
    0.0686   -2.4914   -0.1063 H   0  0
   -0.2128    1.2499    1.4079 H   0  0
   -2.9458    1.7787   -0.9105 H   0  0
   -1.3419    1.5651    2.4437 H   0  0
   -2.2316    0.0531    2.3114 H   0  0
   -2.8990    1.3737    3.4052 H   0  0
   -3.1045   -1.8174    0.0711 H   0  0
   -4.0598   -2.7091   -1.8088 H   0  0
   -3.3031   -2.5396   -3.4139 H   0  0
   -0.5280   -0.7036   -2.3003 H   0  0
   -1.3200   -1.4210   -3.7326 H   0  0
    0.6438    5.3048   -0.3106 H   0  0
    0.3206    5.0314   -2.0513 H   0  0
    2.7704    4.7682   -2.4659 H   0  0
    3.0941    5.0410   -0.7230 H   0  0
    2.4125    6.3694   -1.7272 H   0  0
    2.8105    3.0819   -1.9824 H   0  0
    2.1165    1.6207   -1.2062 H   0  0
    0.9666    3.0599   -3.6733 H   0  0
    0.2716    1.5986   -2.8964 H   0  0
    1.8787    1.5116   -3.6961 H   0  0
  1  5  1  0
  1  4  2  0
  5 11  1  0
 11  2  1  0
  2  3  1  0
  3  4  1  0
  1  6  1  0
  6  7  2  0
  6  8  1  0
  3 17  1  0
 11  9  1  0
  9 12  1  0
  9 10  2  0
 12 21  1  0
  2 13  1  0
 13 14  1  0
 14 15  1  0
 14 16  2  0
 17 18  1  0
 18 20  1  0
 18 19  2  0
 12 23  1  0
 21 22  1  0
 23 24  1  0
  2 25  1  0
  3 26  1  0
  4 27  1  0
 11 28  1  0
 13 29  1  0
 15 30  1  0
 15 31  1  0
 15 32  1  0
 17 33  1  0
 19 34  1  0
 19 35  1  0
 20 36  1  0
 20 37  1  0
 21 38  1  0
 21 39  1  0
 22 40  1  0
 22 41  1  0
 22 42  1  0
 23 43  1  0
 23 44  1  0
 24 45  1  0
 24 46  1  0
 24 47  1  0
M  CHG  2   8  -1  19   1
M  END
> <Name>
BDB4942

> <Target>
Neuraminidase A

> <IC50_in_nM>
 1

> <Kd_from_ITC>
false

> <source_organism>
Influenza A virus (A/Singapore/1/57(H2N2))

> <SourceTag>
NA

$$$$
BDB4997
  SciTegic07061217153D

 59 59  0  0  0  0            999 V2000
    1.0390   -0.9157   -0.3254 C   0  0
    1.1433    0.5838   -0.2831 C   0  0  2  0  0  0
   -0.1545    1.2333    0.4003 C   0  0  1  0  0  0
   -1.5091    0.5408    0.0182 C   0  0  2  0  0  0
   -1.4186   -0.9422    0.3886 C   0  0
   -0.0937   -1.6039   -0.0712 C   0  0
   -0.0079   -3.0562   -0.1369 C   0  0
    1.0670   -3.5968   -0.4076 O   0  0
   -1.1024   -3.8117    0.1294 O   0  5
   -1.8958    0.6168   -1.3494 N   0  3
   -0.1370    1.3034    1.9335 N   0  0
    0.1200    0.2951    2.9733 C   0  0
    0.7781   -1.0423    2.8007 C   0  0
   -0.1765    0.6153    4.1305 O   0  0
    1.5977    1.0382   -1.6704 O   0  0
    0.8773    0.6362   -2.8656 C   0  0  1  0  0  0
   -0.0405    1.7862   -3.3720 C   0  0
    0.7886    3.0437   -3.6923 C   0  0
    1.8251    0.3105   -4.0319 C   0  0
    0.8907   -0.2010   -5.1546 C   0  0
    1.5917   -0.3926   -6.5035 C   0  0
    0.5030   -0.8678   -7.4894 C   0  0
    1.0451   -0.9644   -8.9216 C   0  0
   -0.1001   -1.4278   -9.8455 C   0  0
    0.3935   -1.4836  -11.3011 C   0  0
    1.9187   -1.4723   -0.5728 H   0  0
    1.9895    0.8974    0.3451 H   0  0
   -0.1795    2.2929    0.1134 H   0  0
   -2.3129    1.0277    0.5857 H   0  0
   -2.2533   -1.4723   -0.0581 H   0  0
   -1.5123   -1.0459    1.4674 H   0  0
   -1.2674    0.1106   -1.8951 H   0  0
   -1.9368    1.6022   -1.6351 H   0  0
   -2.8225    0.1944   -1.4564 H   0  0
   -0.4036    2.1886    2.2953 H   0  0
    1.7200   -0.7368    2.2893 H   0  0
    0.1635   -1.4617    1.9710 H   0  0
    0.8719   -1.5794    3.5655 H   0  0
    0.3102   -0.2706   -2.6647 H   0  0
   -0.7670    2.0226   -2.6162 H   0  0
   -0.5586    1.4650   -4.2604 H   0  0
    1.5109    2.8002   -4.4464 H   0  0
    1.3019    3.3563   -2.8043 H   0  0
    0.1520    3.8217   -4.0369 H   0  0
    2.4904   -0.4493   -3.7500 H   0  0
    2.3162    1.1848   -4.3479 H   0  0
    0.4499   -1.1501   -4.8460 H   0  0
    0.0680    0.5002   -5.2801 H   0  0
    2.3396   -1.1325   -6.4161 H   0  0
    1.9927    0.5301   -6.8326 H   0  0
    0.1398   -1.8376   -7.1799 H   0  0
   -0.3238   -0.1764   -7.4687 H   0  0
    1.8392   -1.6731   -8.9565 H   0  0
    1.3931   -0.0058   -9.2378 H   0  0
   -0.9179   -0.7402   -9.7735 H   0  0
   -0.4305   -2.4038   -9.5433 H   0  0
    1.2104   -2.1715  -11.3724 H   0  0
    0.7229   -0.5104  -11.6013 H   0  0
   -0.4028   -1.8052  -11.9394 H   0  0
  1  2  1  0
  1  6  2  0
  2  3  1  0
  3  4  1  0
  4  5  1  0
  5  6  1  0
  6  7  1  0
  7  8  2  0
  7  9  1  0
  4 10  1  0
  3 11  1  0
  2 15  1  0
 11 12  1  0
 12 13  1  0
 12 14  2  0
 15 16  1  0
 16 19  1  0
 16 17  1  0
 17 18  1  0
 19 20  1  0
 20 21  1  0
 21 22  1  0
 22 23  1  0
 23 24  1  0
 24 25  1  0
  1 26  1  0
  2 27  1  0
  3 28  1  0
  4 29  1  0
  5 30  1  0
  5 31  1  0
 10 32  1  0
 10 33  1  0
 10 34  1  0
 11 35  1  0
 13 36  1  0
 13 37  1  0
 13 38  1  0
 16 39  1  0
 17 40  1  0
 17 41  1  0
 18 42  1  0
 18 43  1  0
 18 44  1  0
 19 45  1  0
 19 46  1  0
 20 47  1  0
 20 48  1  0
 21 49  1  0
 21 50  1  0
 22 51  1  0
 22 52  1  0
 23 53  1  0
 23 54  1  0
 24 55  1  0
 24 56  1  0
 25 57  1  0
 25 58  1  0
 25 59  1  0
M  CHG  2   9  -1  10   1
M  END
> <Name>
BDB4997

> <Target>
Neuraminidase A

> <IC50_in_nM>
 1

> <Kd_from_ITC>
false

> <source_organism>
Influenza A virus (A/Puerto Rico/8/34/Mount Sinai(H1N1))

> <SourceTag>
NA

$$$$
BDB4995
  SciTegic07061217153D

 45 45  0  0  0  0            999 V2000
    1.0400   -0.9090   -0.3368 C   0  0
    1.1287    0.5890   -0.3011 C   0  0  2  0  0  0
   -0.1609    1.2314    0.3940 C   0  0  1  0  0  0
   -1.5116    0.5414    0.0122 C   0  0  2  0  0  0
   -1.4202   -0.9454    0.3735 C   0  0
   -0.0889   -1.6029   -0.0816 C   0  0
    0.0073   -3.0549   -0.1387 C   0  0
    1.0868   -3.5894   -0.4027 O   0  0
   -1.0823   -3.8163    0.1300 O   0  5
   -1.8911    0.6277   -1.3559 N   0  3
   -0.1303    1.3022    1.9271 N   0  0
    0.1141    0.2907    2.9665 C   0  0
    0.7576   -1.0535    2.7944 C   0  0
   -0.1766    0.6153    4.1240 O   0  0
    1.5512    1.0498   -1.6915 O   0  0
    0.8633    0.5937   -2.8942 C   0  0  2  0  0  0
    1.8750    0.2482   -3.9961 C   0  0
    1.0916   -0.2649   -5.1819 C   0  0
    1.6686   -0.3991   -6.3734 C   0  0
   -0.0501    1.7112   -3.4715 C   0  0
    0.7778    2.9637   -3.8061 C   0  0
    1.9249   -1.4597   -0.5792 H   0  0
    1.9811    0.9138    0.3136 H   0  0
   -0.1889    2.2913    0.1084 H   0  0
   -2.3155    1.0259    0.5811 H   0  0
   -2.2509   -1.4743   -0.0825 H   0  0
   -1.5217   -1.0567    1.4510 H   0  0
   -1.2649    0.1200   -1.8972 H   0  0
   -1.9208    1.6154   -1.6396 H   0  0
   -2.8203    0.2124   -1.4700 H   0  0
   -0.3790    2.1921    2.2897 H   0  0
    1.7036   -0.7581    2.2844 H   0  0
    0.1397   -1.4657    1.9635 H   0  0
    0.8444   -1.5919    3.5590 H   0  0
    0.2981   -0.3137   -2.6836 H   0  0
    2.5349   -0.5072   -3.6516 H   0  0
    2.4129    1.1223   -4.2745 H   0  0
    0.0603   -0.5234   -5.0621 H   0  0
    2.7033   -0.1383   -6.4880 H   0  0
    1.1117   -0.7609   -7.2047 H   0  0
   -0.8033    1.9654   -2.7499 H   0  0
   -0.5317    1.3530   -4.3652 H   0  0
    1.5277    2.7042   -4.5264 H   0  0
    1.2555    3.3150   -2.9133 H   0  0
    0.1444    3.7231   -4.2005 H   0  0
  1  2  1  0
  1  6  2  0
  2  3  1  0
  3  4  1  0
  4  5  1  0
  5  6  1  0
  6  7  1  0
  7  8  2  0
  7  9  1  0
  4 10  1  0
  3 11  1  0
  2 15  1  0
 11 12  1  0
 12 13  1  0
 12 14  2  0
 15 16  1  0
 16 17  1  0
 17 18  1  0
 18 19  2  0
 16 20  1  0
 20 21  1  0
  1 22  1  0
  2 23  1  0
  3 24  1  0
  4 25  1  0
  5 26  1  0
  5 27  1  0
 10 28  1  0
 10 29  1  0
 10 30  1  0
 11 31  1  0
 13 32  1  0
 13 33  1  0
 13 34  1  0
 16 35  1  0
 17 36  1  0
 17 37  1  0
 18 38  1  0
 19 39  1  0
 19 40  1  0
 20 41  1  0
 20 42  1  0
 21 43  1  0
 21 44  1  0
 21 45  1  0
M  CHG  2   9  -1  10   1
M  END
> <Name>
BDB4995

> <Target>
Neuraminidase A

> <IC50_in_nM>
  1

> <Kd_from_ITC>
false

> <source_organism>
Influenza A virus (A/Puerto Rico/8/34/Mount Sinai(H1N1))

> <SourceTag>
NA

$$$$
BDB5025
  SciTegic07061217153D

 51 51  0  0  0  0            999 V2000
    1.2490   -0.6671   -0.0167 C   0  0
   -1.2272   -0.6690    0.3853 C   0  0  2  0  0  0
   -0.0208    1.4782    0.0850 C   0  0
    1.2572    0.6655    0.0698 C   0  0
    2.5363    1.3605    0.1959 C   0  0
    2.5634    2.5933    0.2975 O   0  0
    3.7215    0.6314    0.2009 O   0  0
    4.8368    1.5146    0.3331 C   0  0
    6.1391    0.6928    0.3370 C   0  0
   -0.0239   -1.4568   -0.1376 C   0  0  2  0  0  0
    0.0943   -2.7339    0.5592 O   0  0
    0.5440   -2.6160    1.9384 C   0  0
    1.2960   -3.9079    2.3268 C   0  0
    1.8750   -3.7755    3.7515 C   0  0
   -0.6464   -2.4184    2.9219 C   0  0
   -1.6406   -3.5940    2.7925 C   0  0
   -2.4466   -1.4291    0.0783 N   0  0
   -2.8881   -1.8436   -1.2261 C   0  0
   -2.1269   -1.5404   -2.5019 C   0  0
   -3.9437   -2.4805   -1.3116 O   0  0
   -1.2439    0.6556   -0.3579 C   0  0  2  0  0  0
   -2.4621    1.4098   -0.0291 N   0  3
    2.2079   -1.2059    0.0012 H   0  0
   -1.1703   -0.5020    1.4710 H   0  0
    0.0934    2.3413   -0.5874 H   0  0
   -0.1930    1.8574    1.1031 H   0  0
    4.7538    2.0739    1.2767 H   0  0
    4.8502    2.2185   -0.5121 H   0  0
    6.2253    0.1333   -0.6062 H   0  0
    6.1283   -0.0119    1.1816 H   0  0
    6.9995    1.3706    0.4388 H   0  0
   -0.1923   -1.6531   -1.2068 H   0  0
    1.1982   -1.7346    2.0102 H   0  0
    0.6005   -4.7595    2.2935 H   0  0
    2.1162   -4.0825    1.6148 H   0  0
    1.0537   -3.6016    4.4623 H   0  0
    2.5698   -2.9233    3.7831 H   0  0
    2.4093   -4.6978    4.0232 H   0  0
   -0.2653   -2.3749    3.9529 H   0  0
   -1.1633   -1.4763    2.6870 H   0  0
   -1.1226   -4.5353    3.0283 H   0  0
   -2.0204   -3.6364    1.7610 H   0  0
   -2.4796   -3.4499    3.4891 H   0  0
   -3.0438   -1.6908    0.8756 H   0  0
   -1.1254   -1.9509   -2.3056 H   0  0
   -2.0193   -0.4459   -2.4813 H   0  0
   -2.5827   -1.9193   -3.4286 H   0  0
   -1.2190    0.4656   -1.4411 H   0  0
   -2.4875    1.5849    0.9856 H   0  0
   -3.2865    0.8543   -0.2985 H   0  0
   -2.4669    2.3063   -0.5362 H   0  0
  4  1  2  0
  4  3  1  0
  1 10  1  0
 10  2  1  0
  2 21  1  0
 21  3  1  0
  4  5  1  0
  5  6  2  0
  5  7  1  0
  7  8  1  0
  8  9  1  0
 10 11  1  0
 11 12  1  0
 12 13  1  0
 13 14  1  0
 12 15  1  0
 15 16  1  0
  2 17  1  0
 17 18  1  0
 18 19  1  0
 18 20  2  0
 21 22  1  0
  1 23  1  0
  2 24  1  0
  3 25  1  0
  3 26  1  0
  8 27  1  0
  8 28  1  0
  9 29  1  0
  9 30  1  0
  9 31  1  0
 10 32  1  0
 12 33  1  0
 13 34  1  0
 13 35  1  0
 14 36  1  0
 14 37  1  0
 14 38  1  0
 15 39  1  0
 15 40  1  0
 16 41  1  0
 16 42  1  0
 16 43  1  0
 17 44  1  0
 19 45  1  0
 19 46  1  0
 19 47  1  0
 21 48  1  0
 22 49  1  0
 22 50  1  0
 22 51  1  0
M  CHG  1  22   1
M  END
> <Name>
BDB5025

> <Target>
Neuraminidase A

> <IC50_in_nM>
1

> <Kd_from_ITC>
false

> <source_organism>
Influenza A virus (A/Singapore/1/57(H2N2))

> <SourceTag>
NA

$$$$
BDB5023
  SciTegic07061217153D

 50 50  0  0  0  0            999 V2000
    0.7946   -1.0688   -0.3088 C   0  0
   -1.0944    0.3470    0.3597 C   0  0
   -0.7693   -1.0778   -0.1699 C   0  0  1  0  0  0
   -1.3232   -1.1593   -1.5659 C   0  0
   -0.9882   -0.3239   -2.4130 O   0  0
   -2.1911   -2.1507   -1.8947 O   0  5
    1.1824    0.3712    0.0738 C   0  0  2  0  0  0
   -0.0259    1.1698   -0.3472 C   0  0  2  0  0  0
    0.0386    2.6426    0.1914 C   0  0  1  0  0  0
    0.2618    2.6392    1.6132 N   0  0
   -0.2227    3.6738    2.4329 C   0  0
   -1.0414    4.7960    1.8513 C   0  0
    0.0150    3.6552    3.6433 O   0  0
    0.6673    3.6088   -2.0847 C   0  0
   -0.7942    4.0689   -2.2631 C   0  0
    2.4166    0.8050   -0.5491 N   0  0
    2.5989    0.8273   -1.9508 C   0  0
    3.7096    1.2204   -2.4264 N   0  3
    1.5822    0.4256   -2.8270 N   0  0
    1.0362    3.6097   -0.5872 C   0  0
    2.5565    3.2924   -0.4321 C   0  0
    3.0419    3.5039    1.0183 C   0  0
    1.0834   -1.2767   -1.3496 H   0  0
    1.2412   -1.7843    0.3973 H   0  0
   -2.0986    0.6566    0.0347 H   0  0
   -0.9565    0.3913    1.4501 H   0  0
   -1.1606   -1.8890    0.4617 H   0  0
    1.4072    0.4903    1.1439 H   0  0
   -0.1659    1.3007   -1.4304 H   0  0
   -0.9463    3.0864   -0.0159 H   0  0
    0.7875    1.8626    2.0392 H   0  0
   -1.8857    4.2968    1.3535 H   0  0
   -0.4082    5.2220    1.0592 H   0  0
   -1.3654    5.5473    2.5866 H   0  0
    1.3350    4.2948   -2.6266 H   0  0
    0.7823    2.5928   -2.4904 H   0  0
   -0.9089    5.0852   -1.8582 H   0  0
   -1.4617    3.3829   -1.7210 H   0  0
   -1.0548    4.0674   -3.3318 H   0  0
    3.1936    1.1097    0.0546 H   0  0
    4.4708    1.5201   -1.8006 H   0  0
    3.8479    1.2387   -3.4469 H   0  0
    0.6840    0.1079   -2.4355 H   0  0
    1.7271    0.4463   -3.8465 H   0  0
    0.9041    4.5973   -0.1212 H   0  0
    3.1329    3.9459   -1.1034 H   0  0
    2.7387    2.2476   -0.7240 H   0  0
    2.4588    2.8467    1.6801 H   0  0
    2.8532    4.5504    1.2996 H   0  0
    4.1144    3.2748    1.1042 H   0  0
  1  7  1  0
  1  3  1  0
  7  8  1  0
  8  2  1  0
  2  3  1  0
  3  4  1  0
  4  6  1  0
  4  5  2  0
  7 16  1  0
  8  9  1  0
  9 10  1  0
 10 11  1  0
 11 12  1  0
 11 13  2  0
  9 20  1  0
 20 14  1  0
 14 15  1  0
 16 17  1  0
 17 18  2  0
 17 19  1  0
 20 21  1  0
 21 22  1  0
  1 23  1  0
  1 24  1  0
  2 25  1  0
  2 26  1  0
  3 27  1  0
  7 28  1  0
  8 29  1  0
  9 30  1  0
 10 31  1  0
 12 32  1  0
 12 33  1  0
 12 34  1  0
 14 35  1  0
 14 36  1  0
 15 37  1  0
 15 38  1  0
 15 39  1  0
 16 40  1  0
 18 41  1  0
 18 42  1  0
 19 43  1  0
 19 44  1  0
 20 45  1  0
 21 46  1  0
 21 47  1  0
 22 48  1  0
 22 49  1  0
 22 50  1  0
M  CHG  2   6  -1  18   1
M  END
> <Name>
BDB5023

> <Target>
Neuraminidase A

> <IC50_in_nM>
1

> <Kd_from_ITC>
false

> <source_organism>
Influenza A virus (A/Singapore/1/57(H2N2))

> <SourceTag>
NA

$$$$
BDB5024
  SciTegic07061217153D

 51 51  0  0  0  0            999 V2000
    0.6738   -1.1517   -0.2705 C   0  0
   -1.1191    0.3471    0.4272 C   0  0  2  0  0  0
   -0.8875   -1.0314   -0.2254 C   0  0  1  0  0  0
   -1.4077   -1.0650   -1.6604 C   0  0
   -1.4854   -0.0482   -2.3569 O   0  0
   -1.8993   -2.2317   -2.1492 O   0  5
    1.1751    0.2972    0.0748 C   0  0  2  0  0  0
   -0.0353    1.2142   -0.2744 C   0  0  2  0  0  0
   -0.0350    2.7289    0.2313 C   0  0  2  0  0  0
    0.7059    3.6766   -2.0741 C   0  0
   -0.7407    4.0939   -2.4147 C   0  0
    2.4767    0.6193   -0.5413 N   0  0
    2.7026    0.6238   -1.9772 C   0  0
    3.8375    0.9999   -2.4093 N   0  3
    1.7027    0.2346   -2.9321 N   0  0
    0.9684    3.7186   -0.5429 C   0  0
    2.4856    3.4961   -0.3076 C   0  0
    2.9153    3.7934    1.1426 C   0  0
    0.2085    2.7836    1.6605 N   0  0
   -0.3253    3.8078    2.4821 C   0  0
   -1.1662    4.9270    1.9211 C   0  0
   -0.0883    3.7847    3.6947 O   0  0
   -0.8414    0.2396    1.8285 O   0  0
    0.9827   -1.4145   -1.2382 H   0  0
    0.9990   -1.8251    0.4615 H   0  0
   -2.1501    0.6980    0.2844 H   0  0
   -1.3710   -1.8531    0.3209 H   0  0
    1.2857    0.3352    1.1644 H   0  0
   -0.2122    1.2083   -1.3402 H   0  0
   -1.0429    3.0995    0.0344 H   0  0
    0.8823    2.6772   -2.4394 H   0  0
    1.3957    4.3435   -2.5730 H   0  0
   -0.9025    5.0894   -2.0445 H   0  0
   -1.4140    3.4251   -1.9112 H   0  0
   -0.8984    4.0589   -3.4573 H   0  0
    3.2268    0.9721    0.0657 H   0  0
    4.5429    1.2803   -1.7683 H   0  0
    4.0138    1.0170   -3.3867 H   0  0
    0.7812   -0.0627   -2.6332 H   0  0
    1.9227    0.2648   -3.9352 H   0  0
    0.7437    4.6732   -0.1151 H   0  0
    3.0479    4.1322   -0.9813 H   0  0
    2.7366    2.4667   -0.5488 H   0  0
    2.3433    3.1528    1.7926 H   0  0
    2.6543    4.8157    1.3595 H   0  0
    3.9406    3.6345    1.2686 H   0  0
    0.7636    2.0777    2.0829 H   0  0
   -1.9669    4.3962    1.3900 H   0  0
   -0.5269    5.3507    1.1357 H   0  0
   -1.4788    5.5756    2.5853 H   0  0
   -1.0099    1.0958    2.2737 H   0  0
  1  7  1  0
  1  3  1  0
  7  8  1  0
  8  2  1  0
  2  3  1  0
  3  4  1  0
  4  6  1  0
  4  5  2  0
  7 12  1  0
  8  9  1  0
  9 19  1  0
  9 16  1  0
 16 10  1  0
 10 11  1  0
 12 13  1  0
 13 14  2  0
 13 15  1  0
 16 17  1  0
 17 18  1  0
 19 20  1  0
 20 22  2  0
 20 21  1  0
  2 23  1  0
  1 24  1  0
  1 25  1  0
  2 26  1  0
  3 27  1  0
  7 28  1  0
  8 29  1  0
  9 30  1  0
 10 31  1  0
 10 32  1  0
 11 33  1  0
 11 34  1  0
 11 35  1  0
 12 36  1  0
 14 37  1  0
 14 38  1  0
 15 39  1  0
 15 40  1  0
 16 41  1  0
 17 42  1  0
 17 43  1  0
 18 44  1  0
 18 45  1  0
 18 46  1  0
 19 47  1  0
 21 48  1  0
 21 49  1  0
 21 50  1  0
 23 51  1  0
M  CHG  2   6  -1  14   1
M  END
> <Name>
BDB5024

> <Target>
Neuraminidase A

> <IC50_in_nM>
1

> <Kd_from_ITC>
false

> <source_organism>
Influenza A virus (A/Singapore/1/57(H2N2))

> <SourceTag>
NA

$$$$
BDB5009
  SciTegic07061217153D

 43 43  0  0  0  0            999 V2000
    1.3781   -0.7977    0.2861 C   0  0
    1.2803    0.6771   -0.0016 C   0  0  2  0  0  0
   -0.1099    1.2189    0.3678 C   0  0  1  0  0  0
   -1.1958    0.3133   -0.3466 C   0  0  2  0  0  0
   -1.1149   -1.1035    0.1438 C   0  0
    0.3010   -1.6076    0.2903 C   0  0
    0.4770   -3.0326    0.4748 C   0  0
    1.6094   -3.5106    0.5851 O   0  0
   -0.6123   -3.8442    0.4609 O   0  5
   -0.3164    1.4493    1.8933 N   0  0
   -0.2973    0.5598    3.0880 C   0  0
   -0.0726   -0.9169    3.1525 C   0  0
   -0.4817    1.1131    4.1777 O   0  0
   -1.2369    0.3265   -1.8949 N   0  0
   -0.4114   -0.3992   -2.9410 C   0  0
   -0.6864   -0.1595   -4.1491 N   0  3
    0.6588   -1.3461   -2.7365 N   0  0
    1.5074    0.8091   -1.4357 O   0  0
    1.6604    2.1866   -1.8467 C   0  0
    2.0429    2.2857   -3.3554 C   0  0
    0.7981    2.4498   -4.2524 C   0  0
    2.3394   -1.2187    0.4951 H   0  0
    2.0689    1.2402    0.5214 H   0  0
   -0.2002    2.2341   -0.0366 H   0  0
   -2.1800    0.7060   -0.0552 H   0  0
   -1.6509   -1.7494   -0.5454 H   0  0
   -1.6188   -1.1759    1.1063 H   0  0
   -0.4673    2.4024    2.1276 H   0  0
    0.8841   -0.9838    2.5743 H   0  0
   -0.8327   -1.2525    2.4017 H   0  0
   -0.0918   -1.3281    3.9839 H   0  0
   -1.8470    1.0519   -2.2938 H   0  0
   -1.4154    0.4719   -4.3807 H   0  0
   -0.1740   -0.6135   -4.8744 H   0  0
    0.9758   -1.5980   -1.8606 H   0  0
    1.1373   -1.7338   -3.5607 H   0  0
    2.4290    2.6520   -1.2537 H   0  0
    0.7337    2.7137   -1.6782 H   0  0
    2.7014    3.1319   -3.5020 H   0  0
    2.5760    1.3938   -3.6479 H   0  0
    0.2781    3.3399   -3.9484 H   0  0
    0.1540    1.6042   -4.0938 H   0  0
    1.0791    2.5146   -5.2656 H   0  0
  1  2  1  0
  1  6  2  0
  2  3  1  0
  3  4  1  0
  4  5  1  0
  5  6  1  0
  6  7  1  0
  7  8  2  0
  7  9  1  0
  4 14  1  0
  3 10  1  0
  2 18  1  0
 10 11  1  0
 11 12  1  0
 11 13  2  0
 14 15  1  0
 15 17  1  0
 15 16  2  0
 18 19  1  0
 19 20  1  0
 20 21  1  0
  1 22  1  0
  2 23  1  0
  3 24  1  0
  4 25  1  0
  5 26  1  0
  5 27  1  0
 10 28  1  0
 12 29  1  0
 12 30  1  0
 12 31  1  0
 14 32  1  0
 16 33  1  0
 16 34  1  0
 17 35  1  0
 17 36  1  0
 19 37  1  0
 19 38  1  0
 20 39  1  0
 20 40  1  0
 21 41  1  0
 21 42  1  0
 21 43  1  0
M  CHG  2   9  -1  16   1
M  END
> <Name>
BDB5009

> <Target>
Neuraminidase A

> <IC50_in_nM>
 2

> <Kd_from_ITC>
false

> <source_organism>
Influenza A virus (A/Puerto Rico/8/34/Mount Sinai(H1N1))

> <SourceTag>
NA

$$$$
BDB4945
  SciTegic07061217153D

 55 56  0  0  0  0            999 V2000
    1.1812   -0.7027   -0.0994 C   0  0
   -1.1727    0.6912   -0.4028 C   0  0  2  0  0  0
   -1.2682   -0.7146    0.1627 C   0  0  2  0  0  0
    0.0393   -1.3948   -0.0257 C   0  0
    1.2344    0.7134    0.0074 O   0  0
    2.4278   -1.4326   -0.3356 C   0  0
    3.4971   -0.8184   -0.4238 O   0  0
    2.4096   -2.7856   -0.4579 O   0  5
    0.0702    2.8341   -0.0430 C   0  0
   -0.6639    3.6286    0.5550 O   0  0
   -0.0210    1.3522    0.3296 C   0  0  1  0  0  0
   -2.4242    1.4015   -0.1064 N   0  0
   -2.9925    1.6219    1.1962 C   0  0
   -2.3529    1.1332    2.4811 C   0  0
   -4.0585    2.2425    1.2722 O   0  0
   -2.3409   -1.4654   -0.5050 N   0  3
    0.9379    3.3545   -1.0519 N   0  0
    0.9558    4.7840   -1.2536 C   0  0
    1.7772    2.5088   -1.8778 C   0  0
    0.9832    1.9815   -3.0967 C   0  0
    1.9084    1.1181   -3.9719 C   0  0
    1.9227    5.1741   -2.3919 C   0  0
    1.9084    6.6619   -2.5845 C   0  0
    1.8733    9.4163   -2.9507 C   0  0
    1.1572    8.8456   -1.9060 C   0  0
    1.1748    7.4672   -1.7228 C   0  0
    2.6251    7.2328   -3.6301 C   0  0
    2.6075    8.6099   -3.8131 C   0  0
   -1.0128    0.6979   -1.4911 H   0  0
   -1.5078   -0.6667    1.2352 H   0  0
    0.0686   -2.4914   -0.1063 H   0  0
   -0.2128    1.2498    1.4079 H   0  0
   -2.9458    1.7787   -0.9105 H   0  0
   -1.3419    1.5651    2.4437 H   0  0
   -2.2316    0.0531    2.3114 H   0  0
   -2.8990    1.3737    3.4052 H   0  0
   -2.1402   -1.5137   -1.5141 H   0  0
   -3.2352   -0.9753   -0.3604 H   0  0
   -2.3989   -2.4172   -0.1158 H   0  0
    1.2735    5.2779   -0.3235 H   0  0
   -0.0585    5.1265   -1.5066 H   0  0
    2.1358    1.6570   -1.2814 H   0  0
    2.6427    3.0888   -2.2307 H   0  0
    0.6080    2.8305   -3.6869 H   0  0
    0.1360    1.3729   -2.7476 H   0  0
    2.2841    0.2674   -3.3843 H   0  0
    2.7565    1.7246   -4.3224 H   0  0
    1.3460    0.7421   -4.8392 H   0  0
    1.6090    4.6823   -3.3245 H   0  0
    2.9415    4.8490   -2.1341 H   0  0
    1.8594   10.5066   -3.0957 H   0  0
    0.5764    9.4838   -1.2238 H   0  0
    0.6080    7.0149   -0.8957 H   0  0
    3.2059    6.5945   -4.3122 H   0  0
    3.1744    9.0621   -4.6402 H   0  0
  1  5  1  0
  1  4  2  0
  5 11  1  0
 11  2  1  0
  2  3  1  0
  3  4  1  0
  1  6  1  0
  6  7  2  0
  6  8  1  0
  3 16  1  0
 11  9  1  0
  9 17  1  0
  9 10  2  0
  2 12  1  0
 12 13  1  0
 13 14  1  0
 13 15  2  0
 17 18  1  0
 18 22  1  0
 17 19  1  0
 19 20  1  0
 20 21  1  0
 22 23  1  0
 26 23  2  0
 23 27  1  0
 24 25  2  0
 24 28  1  0
 25 26  1  0
 27 28  2  0
  2 29  1  0
  3 30  1  0
  4 31  1  0
 11 32  1  0
 12 33  1  0
 14 34  1  0
 14 35  1  0
 14 36  1  0
 16 37  1  0
 16 38  1  0
 16 39  1  0
 18 40  1  0
 18 41  1  0
 19 42  1  0
 19 43  1  0
 20 44  1  0
 20 45  1  0
 21 46  1  0
 21 47  1  0
 21 48  1  0
 22 49  1  0
 22 50  1  0
 24 51  1  0
 25 52  1  0
 26 53  1  0
 27 54  1  0
 28 55  1  0
M  CHG  2   8  -1  16   1
M  END
> <Name>
BDB4945

> <Target>
Neuraminidase A

> <IC50_in_nM>
 2

> <Kd_from_ITC>
false

> <source_organism>
Influenza A virus (A/Singapore/1/57(H2N2))

> <SourceTag>
NA

$$$$
BDB4972
  SciTegic07061217153D

 65 67  0  0  0  0            999 V2000
    1.1812   -0.7027   -0.0994 C   0  0
   -1.1727    0.6912   -0.4028 C   0  0  2  0  0  0
   -1.2682   -0.7146    0.1627 C   0  0  2  0  0  0
    0.0393   -1.3948   -0.0257 C   0  0
    1.2344    0.7134    0.0074 O   0  0
    2.4278   -1.4326   -0.3356 C   0  0
    3.4971   -0.8184   -0.4238 O   0  0
    2.4096   -2.7856   -0.4579 O   0  5
    0.0702    2.8341   -0.0430 C   0  0
   -0.6639    3.6286    0.5550 O   0  0
   -0.0210    1.3522    0.3296 C   0  0  1  0  0  0
   -2.4242    1.4015   -0.1064 N   0  0
   -2.9925    1.6219    1.1962 C   0  0
   -2.3529    1.1332    2.4811 C   0  0
   -4.0585    2.2425    1.2722 O   0  0
   -2.3409   -1.4654   -0.5050 N   0  3
    0.9558    4.7840   -1.2536 C   0  0
    1.9227    5.1741   -2.3919 C   0  0
    1.9084    6.6619   -2.5845 C   0  0
    1.1746    7.4680   -1.7226 C   0  0
    2.6248    7.2323   -3.6296 C   0  0
    2.6077    8.6097   -3.8133 C   0  0
    0.9379    3.3545   -1.0519 N   0  0
    1.7772    2.5088   -1.8778 C   0  0
    0.9832    1.9815   -3.0967 C   0  0
    1.9084    1.1181   -3.9719 C   0  0
    1.8740    9.4163   -2.9516 C   0  0
    1.1576    8.8454   -1.9064 C   0  0
    0.3836    9.6966   -0.9975 C   0  0
   -1.0665    9.9348    0.9092 C   0  0
   -1.0826   11.3127    0.7239 C   0  0
   -0.3660   11.8820   -0.3213 C   0  0
    0.3675   11.0733   -1.1825 C   0  0
   -0.3337    9.1269    0.0488 C   0  0
   -1.0128    0.6979   -1.4911 H   0  0
   -1.5078   -0.6667    1.2352 H   0  0
    0.0686   -2.4914   -0.1063 H   0  0
   -0.2128    1.2498    1.4079 H   0  0
   -2.9458    1.7787   -0.9105 H   0  0
   -1.3419    1.5651    2.4437 H   0  0
   -2.2316    0.0531    2.3114 H   0  0
   -2.8990    1.3737    3.4052 H   0  0
   -2.1402   -1.5137   -1.5141 H   0  0
   -3.2352   -0.9753   -0.3604 H   0  0
   -2.3989   -2.4172   -0.1158 H   0  0
    1.2735    5.2779   -0.3235 H   0  0
   -0.0585    5.1265   -1.5066 H   0  0
    1.6090    4.6823   -3.3245 H   0  0
    2.9415    4.8490   -2.1341 H   0  0
    0.6075    7.0162   -0.8954 H   0  0
    3.2054    6.5937   -4.3115 H   0  0
    3.1747    9.0615   -4.6406 H   0  0
    2.1358    1.6570   -1.2814 H   0  0
    2.6427    3.0888   -2.2307 H   0  0
    0.6080    2.8305   -3.6869 H   0  0
    0.1360    1.3729   -2.7476 H   0  0
    2.2841    0.2674   -3.3843 H   0  0
    2.7565    1.7246   -4.3224 H   0  0
    1.3460    0.7421   -4.8392 H   0  0
    1.8603   10.5066   -3.0968 H   0  0
   -1.6341    9.4845    1.7369 H   0  0
   -1.6628   11.9523    1.4052 H   0  0
   -0.3789   12.9721   -0.4676 H   0  0
    0.9350   11.5237   -2.0101 H   0  0
   -0.3209    8.0367    0.1951 H   0  0
  1  5  1  0
  1  4  2  0
  5 11  1  0
 11  2  1  0
  2  3  1  0
  3  4  1  0
  1  6  1  0
  6  7  2  0
  6  8  1  0
  3 16  1  0
 11  9  1  0
  9 23  1  0
  9 10  2  0
  2 12  1  0
 12 13  1  0
 13 14  1  0
 13 15  2  0
 23 17  1  0
 17 18  1  0
 18 19  1  0
 20 19  2  0
 19 21  1  0
 27 28  2  0
 27 22  1  0
 28 20  1  0
 21 22  2  0
 23 24  1  0
 24 25  1  0
 25 26  1  0
 28 29  1  0
 33 29  2  0
 29 34  1  0
 30 31  1  0
 30 34  2  0
 31 32  2  0
 32 33  1  0
  2 35  1  0
  3 36  1  0
  4 37  1  0
 11 38  1  0
 12 39  1  0
 14 40  1  0
 14 41  1  0
 14 42  1  0
 16 43  1  0
 16 44  1  0
 16 45  1  0
 17 46  1  0
 17 47  1  0
 18 48  1  0
 18 49  1  0
 20 50  1  0
 21 51  1  0
 22 52  1  0
 24 53  1  0
 24 54  1  0
 25 55  1  0
 25 56  1  0
 26 57  1  0
 26 58  1  0
 26 59  1  0
 27 60  1  0
 30 61  1  0
 31 62  1  0
 32 63  1  0
 33 64  1  0
 34 65  1  0
M  CHG  2   8  -1  16   1
M  END
> <Name>
BDB4972

> <Target>
Neuraminidase A

> <IC50_in_nM>
 2

> <Kd_from_ITC>
false

> <source_organism>
Influenza A virus (A/Singapore/1/57(H2N2))

> <SourceTag>
NA

$$$$
BDB4937
  SciTegic07061217153D

 42 42  0  0  0  0            999 V2000
    1.1812   -0.7027   -0.0994 C   0  0
   -1.1727    0.6912   -0.4028 C   0  0  2  0  0  0
   -1.2682   -0.7146    0.1627 C   0  0  2  0  0  0
    0.0393   -1.3948   -0.0257 C   0  0
    1.2344    0.7134    0.0074 O   0  0
    2.4278   -1.4326   -0.3356 C   0  0
    3.4971   -0.8184   -0.4238 O   0  0
    2.4096   -2.7856   -0.4579 O   0  5
    0.0704    2.8356   -0.0438 C   0  0
   -0.7210    3.6186    0.4959 O   0  0
   -0.0210    1.3522    0.3296 C   0  0  1  0  0  0
   -2.4242    1.4015   -0.1064 N   0  0
   -2.9925    1.6219    1.1962 C   0  0
   -2.3529    1.1332    2.4811 C   0  0
   -4.0585    2.2425    1.2722 O   0  0
   -2.3409   -1.4654   -0.5050 N   0  3
    0.9941    3.3689   -0.9941 N   0  0
    0.9972    4.7924   -1.2175 C   0  0
    2.4207    5.2824   -1.5586 C   0  0
    1.8803    2.5332   -1.7732 C   0  0
    1.2018    2.1471   -3.1063 C   0  0
   -1.0128    0.6979   -1.4911 H   0  0
   -1.5078   -0.6667    1.2352 H   0  0
    0.0686   -2.4914   -0.1063 H   0  0
   -0.2128    1.2499    1.4079 H   0  0
   -2.9458    1.7787   -0.9105 H   0  0
   -1.3419    1.5651    2.4437 H   0  0
   -2.2316    0.0531    2.3114 H   0  0
   -2.8990    1.3737    3.4052 H   0  0
   -2.1402   -1.5137   -1.5141 H   0  0
   -3.2352   -0.9753   -0.3604 H   0  0
   -2.3989   -2.4172   -0.1158 H   0  0
    0.6438    5.3048   -0.3106 H   0  0
    0.3206    5.0314   -2.0513 H   0  0
    2.7704    4.7682   -2.4659 H   0  0
    3.0941    5.0410   -0.7230 H   0  0
    2.4125    6.3694   -1.7272 H   0  0
    2.8105    3.0819   -1.9824 H   0  0
    2.1165    1.6207   -1.2062 H   0  0
    0.9666    3.0599   -3.6733 H   0  0
    0.2716    1.5986   -2.8964 H   0  0
    1.8787    1.5116   -3.6961 H   0  0
  1  5  1  0
  1  4  2  0
  5 11  1  0
 11  2  1  0
  2  3  1  0
  3  4  1  0
  1  6  1  0
  6  7  2  0
  6  8  1  0
  3 16  1  0
 11  9  1  0
  9 17  1  0
  9 10  2  0
  2 12  1  0
 12 13  1  0
 13 14  1  0
 13 15  2  0
 18 17  1  0
 18 19  1  0
 17 20  1  0
 20 21  1  0
  2 22  1  0
  3 23  1  0
  4 24  1  0
 11 25  1  0
 12 26  1  0
 14 27  1  0
 14 28  1  0
 14 29  1  0
 16 30  1  0
 16 31  1  0
 16 32  1  0
 18 33  1  0
 18 34  1  0
 19 35  1  0
 19 36  1  0
 19 37  1  0
 20 38  1  0
 20 39  1  0
 21 40  1  0
 21 41  1  0
 21 42  1  0
M  CHG  2   8  -1  16   1
M  END
> <Name>
BDB4937

> <Target>
Neuraminidase A

> <IC50_in_nM>
 3

> <Kd_from_ITC>
false

> <source_organism>
Influenza A virus (A/Singapore/1/57(H2N2))

> <SourceTag>
NA

$$$$
BDB5015
  SciTegic07061217153D

 44 44  0  0  0  0            999 V2000
    1.1333   -0.6517    0.2626 C   0  0  2  0  0  0
   -0.1726   -1.2409   -0.3974 C   0  0  1  0  0  0
   -1.4856   -0.5272    0.0508 C   0  0  2  0  0  0
   -1.3734    0.9502   -0.3093 C   0  0
   -0.0152    1.5845    0.1083 C   0  0
    0.0550    3.0562    0.1728 C   0  0
   -0.9687    3.7187   -0.0382 O   0  0
    1.2292    3.7017    0.4017 O   0  5
   -0.1768   -1.2938   -1.9255 N   0  0
    0.1055   -0.2854   -2.9546 C   0  0
    0.7740    1.0438   -2.7658 C   0  0
   -0.1807   -0.5962   -4.1166 O   0  0
   -1.8083   -0.6010    1.4464 N   0  3
    1.5206   -1.2094    1.6051 O   0  0
    0.9200   -0.6923    2.8052 C   0  0
    2.0134   -0.1382    3.7447 C   0  0
    1.3575    0.4784    5.0015 C   0  0
    0.1370   -1.8195    3.5356 C   0  0
    1.0472   -3.0263    3.8108 C   0  0
    1.1101    0.8566    0.3376 C   0  0
    2.2534    1.4799    0.6496 F   0  0
    1.9684   -0.9926   -0.3651 H   0  0
   -0.2162   -2.3028   -0.1217 H   0  0
   -2.3235   -0.9920   -0.4846 H   0  0
   -2.1814    1.4954    0.1696 H   0  0
   -1.5041    1.0652   -1.3842 H   0  0
   -0.4563   -2.1720   -2.2934 H   0  0
    1.7050    0.7268   -2.2417 H   0  0
    0.1512    1.4659   -1.9437 H   0  0
    0.8848    1.5834   -3.5268 H   0  0
   -1.1503   -0.0882    1.9663 H   0  0
   -1.8372   -1.5858    1.7415 H   0  0
   -2.7288   -0.1742    1.5943 H   0  0
    0.2454    0.0950    2.5409 H   0  0
    2.5773    0.6138    3.2326 H   0  0
    2.6692   -0.9351    4.0391 H   0  0
    0.7945   -0.2734    5.5140 H   0  0
    0.7035    1.2729    4.7078 H   0  0
    2.1171    0.8622    5.6519 H   0  0
   -0.6919   -2.1314    2.9261 H   0  0
   -0.2455   -1.4413    4.4696 H   0  0
    1.8711   -2.7068    4.4185 H   0  0
    1.4244   -3.3953    2.8771 H   0  0
    0.5015   -3.7885    4.3094 H   0  0
 20  1  1  0
 20  5  2  0
  1  2  1  0
  2  3  1  0
  3  4  1  0
  4  5  1  0
  5  6  1  0
  6  7  2  0
  6  8  1  0
  3 13  1  0
  2  9  1  0
  1 14  1  0
  9 10  1  0
 10 11  1  0
 10 12  2  0
 14 15  1  0
 15 16  1  0
 15 18  1  0
 16 17  1  0
 18 19  1  0
 20 21  1  0
  1 22  1  0
  2 23  1  0
  3 24  1  0
  4 25  1  0
  4 26  1  0
  9 27  1  0
 11 28  1  0
 11 29  1  0
 11 30  1  0
 13 31  1  0
 13 32  1  0
 13 33  1  0
 15 34  1  0
 16 35  1  0
 16 36  1  0
 17 37  1  0
 17 38  1  0
 17 39  1  0
 18 40  1  0
 18 41  1  0
 19 42  1  0
 19 43  1  0
 19 44  1  0
M  CHG  2   8  -1  13   1
M  END
> <Name>
BDB5015

> <Target>
Neuraminidase A

> <IC50_in_nM>
  3

> <Kd_from_ITC>
false

> <source_organism>
Influenza A virus (A/Puerto Rico/8/34/Mount Sinai(H1N1))

> <SourceTag>
NA

$$$$
BDB4965
  SciTegic07061217153D

 59 60  0  0  0  0            999 V2000
    1.1812   -0.7027   -0.0994 C   0  0
   -1.1727    0.6912   -0.4028 C   0  0  2  0  0  0
   -1.2682   -0.7146    0.1627 C   0  0  2  0  0  0
    0.0393   -1.3948   -0.0257 C   0  0
    1.2344    0.7134    0.0074 O   0  0
    2.4278   -1.4326   -0.3356 C   0  0
    3.4971   -0.8184   -0.4238 O   0  0
    2.4096   -2.7856   -0.4579 O   0  5
    0.0702    2.8341   -0.0430 C   0  0
   -0.6639    3.6286    0.5550 O   0  0
   -0.0210    1.3522    0.3296 C   0  0  1  0  0  0
   -2.4242    1.4015   -0.1064 N   0  0
   -2.9925    1.6219    1.1962 C   0  0
   -2.3529    1.1332    2.4811 C   0  0
   -4.0585    2.2425    1.2722 O   0  0
   -2.3409   -1.4654   -0.5050 N   0  3
    0.9558    4.7840   -1.2536 C   0  0
    1.9227    5.1741   -2.3919 C   0  0
    1.9084    6.6619   -2.5845 C   0  0
    1.1574    8.8456   -1.9063 C   0  0
    1.1745    7.4681   -1.7225 C   0  0
    2.6248    7.2323   -3.6296 C   0  0
    2.6076    8.6098   -3.8133 C   0  0
    0.9379    3.3545   -1.0519 N   0  0
    1.7772    2.5088   -1.8778 C   0  0
    0.9832    1.9815   -3.0967 C   0  0
    1.9084    1.1181   -3.9719 C   0  0
    1.8739    9.4163   -2.9515 C   0  0
    0.4190    9.6585   -1.0392 O   0  0
    0.5380   11.0399   -1.4058 C   0  0
   -1.0128    0.6979   -1.4911 H   0  0
   -1.5078   -0.6667    1.2352 H   0  0
    0.0686   -2.4914   -0.1063 H   0  0
   -0.2128    1.2498    1.4079 H   0  0
   -2.9458    1.7787   -0.9105 H   0  0
   -1.3419    1.5651    2.4437 H   0  0
   -2.2316    0.0531    2.3114 H   0  0
   -2.8990    1.3737    3.4052 H   0  0
   -2.1402   -1.5137   -1.5141 H   0  0
   -3.2352   -0.9753   -0.3604 H   0  0
   -2.3989   -2.4172   -0.1158 H   0  0
    1.2735    5.2779   -0.3235 H   0  0
   -0.0585    5.1265   -1.5066 H   0  0
    1.6090    4.6823   -3.3245 H   0  0
    2.9415    4.8490   -2.1341 H   0  0
    0.6075    7.0162   -0.8953 H   0  0
    3.2054    6.5937   -4.3115 H   0  0
    3.1747    9.0615   -4.6405 H   0  0
    2.1358    1.6570   -1.2814 H   0  0
    2.6427    3.0888   -2.2307 H   0  0
    0.6080    2.8305   -3.6869 H   0  0
    0.1360    1.3729   -2.7476 H   0  0
    2.2841    0.2674   -3.3843 H   0  0
    2.7565    1.7246   -4.3224 H   0  0
    1.3460    0.7421   -4.8392 H   0  0
    1.8603   10.5066   -3.0968 H   0  0
    0.1680   11.1689   -2.4337 H   0  0
    1.5986   11.3291   -1.3656 H   0  0
   -0.0468   11.6666   -0.7165 H   0  0
  1  5  1  0
  1  4  2  0
  5 11  1  0
 11  2  1  0
  2  3  1  0
  3  4  1  0
  1  6  1  0
  6  7  2  0
  6  8  1  0
  3 16  1  0
 11  9  1  0
  9 24  1  0
  9 10  2  0
  2 12  1  0
 12 13  1  0
 13 14  1  0
 13 15  2  0
 24 17  1  0
 17 18  1  0
 18 19  1  0
 21 19  2  0
 19 22  1  0
 28 20  2  0
 28 23  1  0
 20 21  1  0
 22 23  2  0
 24 25  1  0
 25 26  1  0
 26 27  1  0
 20 29  1  0
 29 30  1  0
  2 31  1  0
  3 32  1  0
  4 33  1  0
 11 34  1  0
 12 35  1  0
 14 36  1  0
 14 37  1  0
 14 38  1  0
 16 39  1  0
 16 40  1  0
 16 41  1  0
 17 42  1  0
 17 43  1  0
 18 44  1  0
 18 45  1  0
 21 46  1  0
 22 47  1  0
 23 48  1  0
 25 49  1  0
 25 50  1  0
 26 51  1  0
 26 52  1  0
 27 53  1  0
 27 54  1  0
 27 55  1  0
 28 56  1  0
 30 57  1  0
 30 58  1  0
 30 59  1  0
M  CHG  2   8  -1  16   1
M  END
> <Name>
BDB4965

> <Target>
Neuraminidase A

> <IC50_in_nM>
 5

> <Kd_from_ITC>
false

> <source_organism>
Influenza A virus (A/Singapore/1/57(H2N2))

> <SourceTag>
NA

$$$$
BDB4952
  SciTegic07061217153D

 52 53  0  0  0  0            999 V2000
    1.1812   -0.7027   -0.0994 C   0  0
   -1.1727    0.6912   -0.4028 C   0  0  2  0  0  0
   -1.2682   -0.7146    0.1627 C   0  0  2  0  0  0
    0.0393   -1.3948   -0.0257 C   0  0
    1.2344    0.7134    0.0074 O   0  0
    2.4278   -1.4326   -0.3356 C   0  0
    3.4971   -0.8184   -0.4238 O   0  0
    2.4096   -2.7856   -0.4579 O   0  5
    0.0705    2.8359   -0.0441 C   0  0
   -0.7121    3.6191    0.5051 O   0  0
   -0.0210    1.3522    0.3296 C   0  0  1  0  0  0
   -2.4242    1.4015   -0.1064 N   0  0
   -2.9925    1.6219    1.1962 C   0  0
   -2.3529    1.1332    2.4811 C   0  0
   -4.0585    2.2425    1.2722 O   0  0
   -2.3409   -1.4654   -0.5050 N   0  3
    0.9961    3.3734   -0.9937 N   0  0
    1.0219    4.8081   -1.1676 C   0  0
    2.0563    5.2275   -2.2344 C   0  0
    2.0483    6.7212   -2.3867 C   0  0
    2.0331    9.4844   -2.6816 C   0  0
    1.2561    8.8868   -1.6972 C   0  0
    1.2638    7.5041   -1.5499 C   0  0
    2.8263    7.3191   -3.3721 C   0  0
    2.8185    8.7005   -3.5194 C   0  0
    1.8820    2.5410   -1.7872 C   0  0
    1.1363    1.9752   -3.0227 C   0  0
   -1.0128    0.6979   -1.4911 H   0  0
   -1.5078   -0.6667    1.2352 H   0  0
    0.0686   -2.4914   -0.1063 H   0  0
   -0.2129    1.2500    1.4079 H   0  0
   -2.9458    1.7787   -0.9105 H   0  0
   -1.3419    1.5651    2.4437 H   0  0
   -2.2316    0.0531    2.3114 H   0  0
   -2.8990    1.3737    3.4052 H   0  0
   -2.1402   -1.5137   -1.5141 H   0  0
   -3.2352   -0.9753   -0.3604 H   0  0
   -2.3989   -2.4172   -0.1158 H   0  0
    1.2772    5.2845   -0.2095 H   0  0
    0.0239    5.1526   -1.4763 H   0  0
    1.8008    4.7607   -3.1971 H   0  0
    3.0582    4.8971   -1.9230 H   0  0
    2.0271   10.5782   -2.7983 H   0  0
    0.6348    9.5072   -1.0346 H   0  0
    0.6486    7.0305   -0.7706 H   0  0
    3.4475    6.6986   -4.0347 H   0  0
    3.4337    9.1741   -4.2987 H   0  0
    2.7402    3.1412   -2.1238 H   0  0
    2.2484    1.7072   -1.1704 H   0  0
    0.7720    2.8121   -3.6366 H   0  0
    0.2788    1.3766   -2.6815 H   0  0
    1.8163    1.3465   -3.6164 H   0  0
  1  5  1  0
  1  4  2  0
  5 11  1  0
 11  2  1  0
  2  3  1  0
  3  4  1  0
  1  6  1  0
  6  7  2  0
  6  8  1  0
  3 16  1  0
 11  9  1  0
  9 17  1  0
  9 10  2  0
  2 12  1  0
 12 13  1  0
 13 14  1  0
 13 15  2  0
 17 18  1  0
 18 19  1  0
 19 20  1  0
 23 20  2  0
 20 24  1  0
 21 22  2  0
 21 25  1  0
 22 23  1  0
 24 25  2  0
 17 26  1  0
 26 27  1  0
  2 28  1  0
  3 29  1  0
  4 30  1  0
 11 31  1  0
 12 32  1  0
 14 33  1  0
 14 34  1  0
 14 35  1  0
 16 36  1  0
 16 37  1  0
 16 38  1  0
 18 39  1  0
 18 40  1  0
 19 41  1  0
 19 42  1  0
 21 43  1  0
 22 44  1  0
 23 45  1  0
 24 46  1  0
 25 47  1  0
 26 48  1  0
 26 49  1  0
 27 50  1  0
 27 51  1  0
 27 52  1  0
M  CHG  2   8  -1  16   1
M  END
> <Name>
BDB4952

> <Target>
Neuraminidase A

> <IC50_in_nM>
 5

> <Kd_from_ITC>
false

> <source_organism>
Influenza A virus (A/Singapore/1/57(H2N2))

> <SourceTag>
NA

$$$$
BDB4946
  SciTegic07061217153D

 60 61  0  0  0  0            999 V2000
    1.1812   -0.7027   -0.0994 C   0  0
   -1.1727    0.6912   -0.4028 C   0  0  2  0  0  0
   -1.2682   -0.7146    0.1627 C   0  0  2  0  0  0
    0.0393   -1.3948   -0.0257 C   0  0
    1.2344    0.7134    0.0074 O   0  0
    2.4278   -1.4326   -0.3356 C   0  0
    3.4971   -0.8184   -0.4238 O   0  0
    2.4096   -2.7856   -0.4579 O   0  5
    0.0702    2.8341   -0.0430 C   0  0
   -0.6639    3.6286    0.5550 O   0  0
   -0.0210    1.3522    0.3296 C   0  0  1  0  0  0
    0.9379    3.3545   -1.0519 N   0  0
   -2.4242    1.4015   -0.1064 N   0  0
   -2.9925    1.6219    1.1962 C   0  0
   -2.3529    1.1332    2.4811 C   0  0
   -4.0585    2.2425    1.2722 O   0  0
   -2.3259   -1.4553   -0.4978 N   0  0
   -2.3327   -1.7008   -1.8900 C   0  0
   -3.2931   -2.3578   -2.4001 N   0  3
   -1.3039   -1.2357   -2.7196 N   0  0
    0.9558    4.7840   -1.2536 C   0  0
    1.7772    2.5088   -1.8778 C   0  0
    0.9832    1.9815   -3.0967 C   0  0
    1.9084    1.1181   -3.9719 C   0  0
    1.9227    5.1741   -2.3919 C   0  0
    1.9084    6.6619   -2.5845 C   0  0
    2.6251    7.2328   -3.6301 C   0  0
    2.6075    8.6099   -3.8131 C   0  0
    1.8733    9.4163   -2.9507 C   0  0
    1.1572    8.8456   -1.9060 C   0  0
    1.1748    7.4672   -1.7228 C   0  0
   -1.0128    0.6979   -1.4911 H   0  0
   -1.5081   -0.6669    1.2352 H   0  0
    0.0686   -2.4914   -0.1063 H   0  0
   -0.2128    1.2498    1.4079 H   0  0
   -2.9458    1.7787   -0.9105 H   0  0
   -1.3419    1.5651    2.4437 H   0  0
   -2.2316    0.0531    2.3114 H   0  0
   -2.8990    1.3737    3.4052 H   0  0
   -3.1045   -1.8174    0.0711 H   0  0
   -4.0598   -2.7091   -1.8088 H   0  0
   -3.3031   -2.5396   -3.4139 H   0  0
   -0.5280   -0.7036   -2.3003 H   0  0
   -1.3200   -1.4210   -3.7326 H   0  0
    1.2735    5.2779   -0.3235 H   0  0
   -0.0585    5.1265   -1.5066 H   0  0
    2.1358    1.6570   -1.2814 H   0  0
    2.6427    3.0888   -2.2307 H   0  0
    0.6080    2.8305   -3.6869 H   0  0
    0.1360    1.3729   -2.7476 H   0  0
    2.2841    0.2674   -3.3843 H   0  0
    2.7565    1.7246   -4.3224 H   0  0
    1.3460    0.7421   -4.8392 H   0  0
    1.6090    4.6823   -3.3245 H   0  0
    2.9415    4.8490   -2.1341 H   0  0
    3.2059    6.5945   -4.3122 H   0  0
    3.1744    9.0621   -4.6402 H   0  0
    1.8594   10.5066   -3.0957 H   0  0
    0.5764    9.4838   -1.2238 H   0  0
    0.6080    7.0149   -0.8957 H   0  0
  1  5  1  0
  1  4  2  0
  5 11  1  0
 11  2  1  0
  2  3  1  0
  3  4  1  0
  1  6  1  0
  6  7  2  0
  6  8  1  0
  3 17  1  0
 11  9  1  0
  9 12  1  0
  9 10  2  0
 12 21  1  0
  2 13  1  0
 13 14  1  0
 14 15  1  0
 14 16  2  0
 17 18  1  0
 18 20  1  0
 18 19  2  0
 12 22  1  0
 21 25  1  0
 22 23  1  0
 23 24  1  0
 25 26  1  0
 31 26  2  0
 27 26  1  0
 27 28  2  0
 28 29  1  0
 29 30  2  0
 30 31  1  0
  2 32  1  0
  3 33  1  0
  4 34  1  0
 11 35  1  0
 13 36  1  0
 15 37  1  0
 15 38  1  0
 15 39  1  0
 17 40  1  0
 19 41  1  0
 19 42  1  0
 20 43  1  0
 20 44  1  0
 21 45  1  0
 21 46  1  0
 22 47  1  0
 22 48  1  0
 23 49  1  0
 23 50  1  0
 24 51  1  0
 24 52  1  0
 24 53  1  0
 25 54  1  0
 25 55  1  0
 27 56  1  0
 28 57  1  0
 29 58  1  0
 30 59  1  0
 31 60  1  0
M  CHG  2   8  -1  19   1
M  END
> <Name>
BDB4946

> <Target>
Neuraminidase A

> <IC50_in_nM>
 5

> <Kd_from_ITC>
false

> <source_organism>
Influenza A virus (A/Singapore/1/57(H2N2))

> <SourceTag>
NA

$$$$
BDB4968
  SciTegic07061217153D

 55 56  0  0  0  0            999 V2000
    1.1812   -0.7027   -0.0994 C   0  0
   -1.1727    0.6912   -0.4028 C   0  0  2  0  0  0
   -1.2682   -0.7146    0.1627 C   0  0  2  0  0  0
    0.0393   -1.3948   -0.0257 C   0  0
    1.2344    0.7134    0.0074 O   0  0
    2.4278   -1.4326   -0.3356 C   0  0
    3.4971   -0.8184   -0.4238 O   0  0
    2.4096   -2.7856   -0.4579 O   0  5
    0.0698    2.8308   -0.0414 C   0  0
   -0.5680    3.6411    0.6402 O   0  0
   -0.0210    1.3522    0.3296 C   0  0  1  0  0  0
   -2.4242    1.4015   -0.1064 N   0  0
   -2.9925    1.6219    1.1962 C   0  0
   -2.3529    1.1332    2.4811 C   0  0
   -4.0585    2.2425    1.2722 O   0  0
   -2.3409   -1.4654   -0.5050 N   0  3
    0.8238    4.7632   -1.3571 C   0  0
    1.6835    5.1648   -2.5746 C   0  0
    1.6457    6.6539   -2.7583 C   0  0
    2.1713    8.6119   -4.0548 C   0  0
    2.2128    7.2335   -3.8859 C   0  0
    1.0358    7.4525   -1.7973 C   0  0
    0.9943    8.8313   -1.9662 C   0  0
    0.8293    3.3333   -1.1418 N   0  0
    1.6175    2.4758   -2.0136 C   0  0
    0.8006    2.0299   -3.2524 C   0  0
    1.7055    1.2008   -4.1834 C   0  0
    1.5621    9.4105   -3.0949 C   0  0
    1.5117   11.1138   -3.3052 Cl  0  0
    2.9657    6.2466   -5.0722 Cl  0  0
   -1.0128    0.6979   -1.4911 H   0  0
   -1.5078   -0.6667    1.2352 H   0  0
    0.0686   -2.4914   -0.1063 H   0  0
   -0.2128    1.2496    1.4079 H   0  0
   -2.9458    1.7787   -0.9105 H   0  0
   -1.3419    1.5651    2.4437 H   0  0
   -2.2316    0.0531    2.3114 H   0  0
   -2.8990    1.3737    3.4052 H   0  0
   -2.1402   -1.5137   -1.5141 H   0  0
   -3.2352   -0.9753   -0.3604 H   0  0
   -2.3989   -2.4172   -0.1158 H   0  0
    1.2141    5.2647   -0.4592 H   0  0
   -0.2111    5.0985   -1.5201 H   0  0
    2.7226    4.8436   -2.4105 H   0  0
    1.2907    4.6757   -3.4782 H   0  0
    2.6206    9.0707   -4.9480 H   0  0
    0.5866    6.9933   -0.9043 H   0  0
    0.5121    9.4642   -1.2066 H   0  0
    1.9388    1.5858   -1.4527 H   0  0
    2.5113    3.0233   -2.3474 H   0  0
    0.4345    2.9164   -3.7910 H   0  0
   -0.0529    1.4162   -2.9284 H   0  0
    2.0723    0.3125   -3.6483 H   0  0
    2.5600    1.8120   -4.5096 H   0  0
    1.1288    0.8824   -5.0643 H   0  0
  1  5  1  0
  1  4  2  0
  5 11  1  0
 11  2  1  0
  2  3  1  0
  3  4  1  0
  1  6  1  0
  6  7  2  0
  6  8  1  0
  3 16  1  0
 11  9  1  0
  9 24  1  0
  9 10  2  0
  2 12  1  0
 12 13  1  0
 13 14  1  0
 13 15  2  0
 24 17  1  0
 17 18  1  0
 18 19  1  0
 21 19  2  0
 19 22  1  0
 28 20  2  0
 28 23  1  0
 20 21  1  0
 22 23  2  0
 24 25  1  0
 25 26  1  0
 26 27  1  0
 28 29  1  0
 21 30  1  0
  2 31  1  0
  3 32  1  0
  4 33  1  0
 11 34  1  0
 12 35  1  0
 14 36  1  0
 14 37  1  0
 14 38  1  0
 16 39  1  0
 16 40  1  0
 16 41  1  0
 17 42  1  0
 17 43  1  0
 18 44  1  0
 18 45  1  0
 20 46  1  0
 22 47  1  0
 23 48  1  0
 25 49  1  0
 25 50  1  0
 26 51  1  0
 26 52  1  0
 27 53  1  0
 27 54  1  0
 27 55  1  0
M  CHG  2   8  -1  16   1
M  END
> <Name>
BDB4968

> <Target>
Neuraminidase A

> <IC50_in_nM>
 6

> <Kd_from_ITC>
false

> <source_organism>
Influenza A virus (A/Singapore/1/57(H2N2))

> <SourceTag>
NA

$$$$
BDB5234
  SciTegic07061217153D

 46 46  0  0  0  0            999 V2000
    1.0188   -0.8847   -0.3662 C   0  0
    1.1112    0.6172   -0.3102 C   0  0  2  0  0  0
   -0.1962    1.2458    0.3590 C   0  0  1  0  0  0
   -1.5208    0.5222   -0.0332 C   0  0  2  0  0  0
   -1.4179   -0.9499    0.3614 C   0  0
   -0.1011   -1.5928   -0.1029 C   0  0
    0.0089   -3.0436   -0.1735 C   0  0
    1.0874   -3.5680   -0.4483 O   0  0
   -1.0750   -3.8146    0.1007 O   0  5
   -1.8339    0.5662   -1.4006 N   0  3
   -0.1996    1.2971    1.8966 N   0  0
    0.1221    0.2910    2.9275 C   0  0
    0.8609   -1.0034    2.7401 C   0  0
   -0.1955    0.5756    4.0884 O   0  0
    1.6631    1.0493   -1.7206 N   0  3
    0.9743    0.6952   -3.0260 C   0  0
   -0.1411    1.6975   -3.4713 C   0  0
    0.4132    3.1147   -3.7294 C   0  0
    2.0268    0.7008   -4.1550 C   0  0
    1.4078    0.1214   -5.4501 C   0  0
    1.9009   -1.4285   -0.6329 H   0  0
    1.9386    0.9272    0.3442 H   0  0
   -0.2366    2.3050    0.0735 H   0  0
   -2.3522    1.0011    0.5007 H   0  0
   -2.2490   -1.4932   -0.0693 H   0  0
   -1.4946   -1.0357    1.4405 H   0  0
   -1.1337    0.0663   -1.9085 H   0  0
   -1.8943    1.5484   -1.6906 H   0  0
   -2.7383    0.1117   -1.5532 H   0  0
   -0.5245    2.1576    2.2682 H   0  0
    1.7811   -0.6347    2.2299 H   0  0
    0.2711   -1.4497    1.9057 H   0  0
    0.9888   -1.5418    3.4977 H   0  0
    1.8897    2.0506   -1.7202 H   0  0
    2.5476    0.5317   -1.7714 H   0  0
    0.5159   -0.2566   -2.8566 H   0  0
   -0.9020    1.7486   -2.7041 H   0  0
   -0.6111    1.3290   -4.3767 H   0  0
    1.1683    3.0427   -4.4925 H   0  0
    0.8771    3.4608   -2.8223 H   0  0
   -0.3541    3.7655   -4.0261 H   0  0
    2.8663    0.1036   -3.8641 H   0  0
    2.3528    1.7075   -4.3348 H   0  0
    0.5691    0.7190   -5.7413 H   0  0
    1.0827   -0.8822   -5.2704 H   0  0
    2.1394    0.1262   -6.2319 H   0  0
  1  2  1  0
  1  6  2  0
  2  3  1  0
  3  4  1  0
  4  5  1  0
  5  6  1  0
  2 15  1  0
  6  7  1  0
  7  8  2  0
  7  9  1  0
  4 10  1  0
  3 11  1  0
 11 12  1  0
 12 13  1  0
 12 14  2  0
 15 16  1  0
 16 19  1  0
 16 17  1  0
 17 18  1  0
 19 20  1  0
  1 21  1  0
  2 22  1  0
  3 23  1  0
  4 24  1  0
  5 25  1  0
  5 26  1  0
 10 27  1  0
 10 28  1  0
 10 29  1  0
 11 30  1  0
 13 31  1  0
 13 32  1  0
 13 33  1  0
 15 34  1  0
 15 35  1  0
 16 36  1  0
 17 37  1  0
 17 38  1  0
 18 39  1  0
 18 40  1  0
 18 41  1  0
 19 42  1  0
 19 43  1  0
 20 44  1  0
 20 45  1  0
 20 46  1  0
M  CHG  3   9  -1  10   1  15   1
M  END
> <Name>
BDB5234

> <Target>
Neuraminidase A

> <IC50_in_nM>
 11

> <Kd_from_ITC>
false

> <source_organism>
Influenza A virus (A/Puerto Rico/8/34(H1N1))

> <SourceTag>
NA

$$$$
BDB5232
  SciTegic07061217153D

 49 49  0  0  0  0            999 V2000
    1.0965   -0.9319   -0.3545 C   0  0
    1.2541    0.5753   -0.2858 C   0  0  2  0  0  0
   -0.0753    1.2365    0.2690 C   0  0  1  0  0  0
   -1.4182    0.5751   -0.2312 C   0  0  2  0  0  0
   -1.3999   -0.8821    0.2170 C   0  0
   -0.0718   -1.5865   -0.1607 C   0  0
   -0.0288   -3.0416   -0.2135 C   0  0
    1.0411   -3.6191   -0.4153 O   0  0
   -1.1602   -3.7586    0.0056 O   0  5
   -1.7109    0.5700   -1.6576 N   0  3
   -0.1994    1.3137    1.7915 N   0  0
    0.0662    0.3381    2.8593 C   0  0
    0.7670   -0.9833    2.7326 C   0  0
   -0.2875    0.6649    3.9982 O   0  0
    0.9557    0.8539   -2.7994 C   0  0
    1.7577    1.1759   -1.6379 N   0  3
    3.1750    0.7842   -1.9460 C   0  0
    3.3599   -0.6970   -2.3602 C   0  0
    4.8357   -0.9417   -2.7226 C   0  0
    1.3923    1.6039   -4.0614 C   0  0
    0.4236    1.2219   -5.1996 C   0  0
    1.9667   -1.5159   -0.5705 H   0  0
    2.0523    0.8632    0.4143 H   0  0
   -0.0468    2.2936   -0.0269 H   0  0
   -2.2441    1.1170    0.2468 H   0  0
   -2.2236   -1.4071   -0.2432 H   0  0
   -1.5340   -0.9267    1.2903 H   0  0
   -1.0950   -0.0492   -2.1320 H   0  0
   -1.6506    1.5283   -2.0361 H   0  0
   -2.6643    0.2131   -1.7907 H   0  0
   -0.5523    2.1808    2.1207 H   0  0
    1.7097   -0.6618    2.2322 H   0  0
    0.1820   -1.4402    1.9011 H   0  0
    0.8609   -1.4989    3.5115 H   0  0
    1.0130   -0.2167   -2.9839 H   0  0
   -0.0827    1.0877   -2.5891 H   0  0
    1.7567    2.1971   -1.5154 H   0  0
    3.7967    0.9875   -1.0720 H   0  0
    3.5538    1.4267   -2.7471 H   0  0
    2.7454   -0.9106   -3.2076 H   0  0
    3.0824   -1.3336   -1.5446 H   0  0
    5.4538   -0.7304   -1.8763 H   0  0
    5.1161   -0.3082   -3.5368 H   0  0
    4.9673   -1.9692   -3.0105 H   0  0
    2.3811    1.3164   -4.3244 H   0  0
    1.3430    2.6543   -3.8884 H   0  0
   -0.5730    1.5080   -4.9502 H   0  0
    0.4647    0.1725   -5.3850 H   0  0
    0.7196    1.7462   -6.1037 H   0  0
  1  2  1  0
  1  6  2  0
  2  3  1  0
  3  4  1  0
  4  5  1  0
  5  6  1  0
  2 16  1  0
 16 15  1  0
  6  7  1  0
  7  8  2  0
  7  9  1  0
  4 10  1  0
  3 11  1  0
 11 12  1  0
 12 13  1  0
 12 14  2  0
 15 20  1  0
 16 17  1  0
 17 18  1  0
 18 19  1  0
 20 21  1  0
  1 22  1  0
  2 23  1  0
  3 24  1  0
  4 25  1  0
  5 26  1  0
  5 27  1  0
 10 28  1  0
 10 29  1  0
 10 30  1  0
 11 31  1  0
 13 32  1  0
 13 33  1  0
 13 34  1  0
 15 35  1  0
 15 36  1  0
 16 37  1  0
 17 38  1  0
 17 39  1  0
 18 40  1  0
 18 41  1  0
 19 42  1  0
 19 43  1  0
 19 44  1  0
 20 45  1  0
 20 46  1  0
 21 47  1  0
 21 48  1  0
 21 49  1  0
M  CHG  3   9  -1  10   1  16   1
M  END
> <Name>
BDB5232

> <Target>
Neuraminidase A

> <IC50_in_nM>
 12

> <Kd_from_ITC>
false

> <source_organism>
Influenza A virus (A/Puerto Rico/8/34(H1N1))

> <SourceTag>
NA

$$$$
BDB5021
  SciTegic07061217153D

 47 47  0  0  0  0            999 V2000
    0.7946   -1.0688   -0.3088 C   0  0
   -1.0944    0.3470    0.3597 C   0  0
   -0.7693   -1.0778   -0.1699 C   0  0  1  0  0  0
   -1.3232   -1.1593   -1.5659 C   0  0
   -0.9882   -0.3239   -2.4130 O   0  0
   -2.1911   -2.1507   -1.8947 O   0  5
    1.1824    0.3712    0.0738 C   0  0  2  0  0  0
   -0.0259    1.1698   -0.3472 C   0  0  2  0  0  0
    0.9973    2.1496    0.4315 C   0  0  1  0  0  0
    1.0369    3.4614   -0.5302 N   0  0
    2.4361    3.6841   -0.2212 C   0  0
    3.1782    3.0293    0.9256 C   0  0
    3.0741    4.4442   -0.9604 O   0  0
    0.1021    2.6939    1.7346 C   0  0
   -0.0853    4.1525    2.1960 C   0  0
   -0.0362    4.2169    3.7320 C   0  0
   -0.2405    5.6728    4.1893 C   0  0
    2.4166    0.8050   -0.5491 N   0  0
    2.5989    0.8273   -1.9508 C   0  0
    3.7096    1.2204   -2.4264 N   0  3
    1.5822    0.4256   -2.8270 N   0  0
    1.0834   -1.2767   -1.3496 H   0  0
    1.2412   -1.7843    0.3973 H   0  0
   -2.0986    0.6566    0.0347 H   0  0
   -0.9565    0.3913    1.4501 H   0  0
   -1.1606   -1.8890    0.4617 H   0  0
    1.4072    0.4903    1.1439 H   0  0
   -0.1659    1.3009   -1.4304 H   0  0
    1.9563    1.6691    0.6753 H   0  0
    0.6861    3.9494   -1.3667 H   0  0
    3.0070    1.9572    0.7487 H   0  0
    2.5627    3.2922    1.7985 H   0  0
    4.2395    3.2980    1.0331 H   0  0
    1.0795    2.3241    2.0780 H   0  0
   -0.6969    2.0694    2.1608 H   0  0
    0.7190    4.7755    1.7778 H   0  0
   -1.0583    4.5269    1.8452 H   0  0
    0.9415    3.8563    4.0844 H   0  0
   -0.8336    3.5859    4.1515 H   0  0
   -1.2182    6.0352    3.8390 H   0  0
    0.5562    6.3055    3.7710 H   0  0
   -0.2056    5.7205    5.2877 H   0  0
    3.1936    1.1097    0.0546 H   0  0
    4.4708    1.5201   -1.8006 H   0  0
    3.8479    1.2387   -3.4469 H   0  0
    0.6840    0.1079   -2.4355 H   0  0
    1.7271    0.4463   -3.8465 H   0  0
  1  7  1  0
  1  3  1  0
  7  8  1  0
  8  2  1  0
  2  3  1  0
  3  4  1  0
  4  6  1  0
  4  5  2  0
  7 18  1  0
  8  9  1  0
  9 10  1  0
 10 11  1  0
 11 12  1  0
 11 13  2  0
  9 14  1  0
 14 15  1  0
 15 16  1  0
 16 17  1  0
 18 19  1  0
 19 20  2  0
 19 21  1  0
  1 22  1  0
  1 23  1  0
  2 24  1  0
  2 25  1  0
  3 26  1  0
  7 27  1  0
  8 28  1  0
  9 29  1  0
 10 30  1  0
 12 31  1  0
 12 32  1  0
 12 33  1  0
 14 34  1  0
 14 35  1  0
 15 36  1  0
 15 37  1  0
 16 38  1  0
 16 39  1  0
 17 40  1  0
 17 41  1  0
 17 42  1  0
 18 43  1  0
 20 44  1  0
 20 45  1  0
 21 46  1  0
 21 47  1  0
M  CHG  2   6  -1  20   1
M  END
> <Name>
BDB5021

> <Target>
Neuraminidase A

> <IC50_in_nM>
 13

> <Kd_from_ITC>
false

> <source_organism>
Influenza A virus (A/Singapore/1/57(H2N2))

> <SourceTag>
NA

$$$$
BDB4948
  SciTegic07061217153D

 66 66  0  0  0  0            999 V2000
    1.1812   -0.7027   -0.0994 C   0  0
   -1.1727    0.6912   -0.4028 C   0  0  2  0  0  0
   -1.2682   -0.7146    0.1627 C   0  0  2  0  0  0
    0.0393   -1.3948   -0.0257 C   0  0
    1.2344    0.7134    0.0074 O   0  0
    2.4278   -1.4326   -0.3356 C   0  0
    3.4971   -0.8184   -0.4238 O   0  0
    2.4096   -2.7856   -0.4579 O   0  5
    0.0706    2.8369   -0.0443 C   0  0
   -0.7183    3.6185    0.4942 O   0  0
   -0.0210    1.3522    0.3296 C   0  0  1  0  0  0
   -2.4242    1.4015   -0.1064 N   0  0
   -2.9925    1.6219    1.1962 C   0  0
   -2.3529    1.1332    2.4811 C   0  0
   -4.0585    2.2425    1.2722 O   0  0
   -2.3409   -1.4654   -0.5050 N   0  3
    0.9983    3.3689   -0.9935 N   0  0
    1.0079    4.7987   -1.2036 C   0  0
    1.8908    2.5346   -1.7704 C   0  0
    1.1525    1.9624   -3.0036 C   0  0
    2.1246    1.0974   -3.8239 C   0  0
    2.0572    5.1818   -2.2661 C   0  0
    2.0253    6.6965   -2.5152 C   0  0
    3.0324    7.0340   -3.6264 C   0  0
    3.0147    8.5450   -3.9051 C   0  0
    4.0073    8.8565   -5.0377 C   0  0
    4.0102   10.3674   -5.3211 C   0  0
    5.0021   10.6689   -6.4585 C   0  0
    5.0182   12.1822   -6.7381 C   0  0
   -1.0128    0.6979   -1.4911 H   0  0
   -1.5078   -0.6667    1.2352 H   0  0
    0.0686   -2.4914   -0.1063 H   0  0
   -0.2129    1.2500    1.4079 H   0  0
   -2.9458    1.7787   -0.9105 H   0  0
   -1.3419    1.5651    2.4437 H   0  0
   -2.2316    0.0531    2.3114 H   0  0
   -2.8990    1.3737    3.4052 H   0  0
   -2.1402   -1.5137   -1.5141 H   0  0
   -3.2352   -0.9753   -0.3604 H   0  0
   -2.3989   -2.4172   -0.1158 H   0  0
    1.2476    5.3049   -0.2569 H   0  0
    0.0127    5.1234   -1.5415 H   0  0
    2.2523    1.7049   -1.1451 H   0  0
    2.7502    3.1337   -2.1058 H   0  0
    0.7825    2.7893   -3.6275 H   0  0
    0.3050    1.3454   -2.6705 H   0  0
    2.4951    0.2689   -3.2024 H   0  0
    2.9730    1.7125   -4.1583 H   0  0
    1.6013    0.6897   -4.7013 H   0  0
    3.0576    4.8912   -1.9130 H   0  0
    1.8372    4.6532   -3.2054 H   0  0
    2.3026    7.2286   -1.5933 H   0  0
    1.0152    6.9972   -2.8302 H   0  0
    4.0417    6.7330   -3.3092 H   0  0
    2.7623    6.4905   -4.5438 H   0  0
    2.0028    8.8513   -4.2088 H   0  0
    3.3105    9.0911   -2.9972 H   0  0
    5.0169    8.5387   -4.7379 H   0  0
    3.7088    8.3146   -5.9472 H   0  0
    3.0010   10.6869   -5.6204 H   0  0
    4.3153   10.9115   -4.4151 H   0  0
    6.0095   10.3404   -6.1633 H   0  0
    4.6932   10.1322   -7.3677 H   0  0
    5.3280   12.7204   -5.8301 H   0  0
    4.0114   12.5122   -7.0335 H   0  0
    5.7271   12.3982   -7.5510 H   0  0
  1  5  1  0
  1  4  2  0
  5 11  1  0
 11  2  1  0
  2  3  1  0
  3  4  1  0
  1  6  1  0
  6  7  2  0
  6  8  1  0
  3 16  1  0
 11  9  1  0
  9 17  1  0
  9 10  2  0
  2 12  1  0
 12 13  1  0
 13 14  1  0
 13 15  2  0
 17 18  1  0
 18 22  1  0
 17 19  1  0
 19 20  1  0
 20 21  1  0
 22 23  1  0
 23 24  1  0
 24 25  1  0
 25 26  1  0
 26 27  1  0
 27 28  1  0
 28 29  1  0
  2 30  1  0
  3 31  1  0
  4 32  1  0
 11 33  1  0
 12 34  1  0
 14 35  1  0
 14 36  1  0
 14 37  1  0
 16 38  1  0
 16 39  1  0
 16 40  1  0
 18 41  1  0
 18 42  1  0
 19 43  1  0
 19 44  1  0
 20 45  1  0
 20 46  1  0
 21 47  1  0
 21 48  1  0
 21 49  1  0
 22 50  1  0
 22 51  1  0
 23 52  1  0
 23 53  1  0
 24 54  1  0
 24 55  1  0
 25 56  1  0
 25 57  1  0
 26 58  1  0
 26 59  1  0
 27 60  1  0
 27 61  1  0
 28 62  1  0
 28 63  1  0
 29 64  1  0
 29 65  1  0
 29 66  1  0
M  CHG  2   8  -1  16   1
M  END
> <Name>
BDB4948

> <Target>
Neuraminidase A

> <IC50_in_nM>
 23

> <Kd_from_ITC>
false

> <source_organism>
Influenza A virus (A/Singapore/1/57(H2N2))

> <SourceTag>
NA

$$$$
BDB4932
  SciTegic07061217153D

 41 41  0  0  0  0            999 V2000
    1.1812   -0.7027   -0.0994 C   0  0
   -1.1727    0.6912   -0.4028 C   0  0  2  0  0  0
   -1.2682   -0.7146    0.1627 C   0  0  2  0  0  0
    0.0393   -1.3948   -0.0257 C   0  0
    1.2344    0.7134    0.0074 O   0  0
    2.4278   -1.4326   -0.3356 C   0  0
    3.4971   -0.8184   -0.4238 O   0  0
    2.4096   -2.7856   -0.4579 O   0  5
    0.0696    2.8325   -0.0414 C   0  0
   -0.3966    3.6631    0.7435 O   0  0
   -0.0210    1.3522    0.3296 C   0  0  1  0  0  0
    0.6582    3.3004   -1.2553 N   0  0
   -2.4242    1.4015   -0.1064 N   0  0
   -2.9925    1.6219    1.1962 C   0  0
   -2.3529    1.1332    2.4811 C   0  0
   -4.0585    2.2425    1.2722 O   0  0
    0.7026    4.7137   -1.4968 C   0  0
   -2.3259   -1.4553   -0.4978 N   0  0
   -2.3327   -1.7008   -1.8900 C   0  0
   -3.2931   -2.3578   -2.4001 N   0  3
   -1.3039   -1.2357   -2.7196 N   0  0
    1.1904    2.4087   -2.2571 C   0  0
   -1.0128    0.6979   -1.4911 H   0  0
   -1.5081   -0.6669    1.2352 H   0  0
    0.0686   -2.4914   -0.1063 H   0  0
   -0.2126    1.2495    1.4079 H   0  0
   -2.9458    1.7787   -0.9105 H   0  0
   -1.3419    1.5651    2.4437 H   0  0
   -2.2316    0.0531    2.3114 H   0  0
   -2.8990    1.3737    3.4052 H   0  0
    1.2383    5.1425   -0.6371 H   0  0
   -0.3412    5.0555   -1.4366 H   0  0
    1.1723    4.9835   -2.4542 H   0  0
   -3.1045   -1.8174    0.0711 H   0  0
   -4.0598   -2.7091   -1.8088 H   0  0
   -3.3031   -2.5396   -3.4139 H   0  0
   -0.5280   -0.7036   -2.3003 H   0  0
   -1.3200   -1.4210   -3.7326 H   0  0
    0.3459    1.7433   -2.4895 H   0  0
    1.9210    1.8004   -1.7037 H   0  0
    1.6166    2.8953   -3.1468 H   0  0
  1  5  1  0
  1  4  2  0
  5 11  1  0
 11  2  1  0
  2  3  1  0
  3  4  1  0
  1  6  1  0
  6  7  2  0
  6  8  1  0
  3 18  1  0
 11  9  1  0
  9 12  1  0
  9 10  2  0
 12 17  1  0
  2 13  1  0
 13 14  1  0
 14 15  1  0
 14 16  2  0
 18 19  1  0
 19 21  1  0
 19 20  2  0
 12 22  1  0
  2 23  1  0
  3 24  1  0
  4 25  1  0
 11 26  1  0
 13 27  1  0
 15 28  1  0
 15 29  1  0
 15 30  1  0
 17 31  1  0
 17 32  1  0
 17 33  1  0
 18 34  1  0
 20 35  1  0
 20 36  1  0
 21 37  1  0
 21 38  1  0
 22 39  1  0
 22 40  1  0
 22 41  1  0
M  CHG  2   8  -1  20   1
M  END
> <Name>
BDB4932

> <Target>
Neuraminidase A

> <IC50_in_nM>
 25

> <Kd_from_ITC>
false

> <source_organism>
Influenza A virus (A/Singapore/1/57(H2N2))

> <SourceTag>
NA

$$$$
BDB5007
  SciTegic07061217153D

 58 60  0  0  0  0            999 V2000
    1.0833   -0.8417   -0.3446 C   0  0
    1.1497    0.6503   -0.2815 C   0  0  2  0  0  0
   -0.0836    1.2760    0.4050 C   0  0  1  0  0  0
   -1.3737    0.6512   -0.2479 C   0  0  2  0  0  0
   -1.4147   -0.8461    0.0581 C   0  0
   -0.0609   -1.5268   -0.2294 C   0  0
    0.0192   -2.9782   -0.2451 C   0  0
    1.1207   -3.5309   -0.3528 O   0  0
   -1.0969   -3.7179   -0.0567 O   0  5
   -1.4516    0.7812   -1.7139 N   0  3
   -0.2015    1.2641    1.9194 N   0  0
   -0.0652    0.2007    2.9199 C   0  0
    0.4837   -1.1784    2.7199 C   0  0
   -0.3924    0.4964    4.0739 O   0  0
    1.0481    1.1671   -1.6390 O   0  0
    1.7830    0.4456   -2.6292 C   0  0
    1.4196    0.9877   -4.0695 C   0  0
    0.0288    0.5367   -4.6731 C   0  0
    0.0584    0.9545   -6.1375 C   0  0
    0.3102    1.6702   -8.8173 C   0  0
    1.2618    2.0624   -7.9055 C   0  0
    1.1423    1.7046   -6.5681 C   0  0
   -0.9199    0.5673   -7.0535 C   0  0
   -0.7989    0.9209   -8.3941 C   0  0
    0.4899    2.0175  -10.2256 C   0  0
    0.9425    2.6744  -12.8878 C   0  0
    1.8621    3.0552  -11.9170 C   0  0
    1.6426    2.7275  -10.5892 C   0  0
   -0.4217    1.6431  -11.1886 C   0  0
   -0.1986    1.9693  -12.5256 C   0  0
    1.9924   -1.3873   -0.4885 H   0  0
    2.0983    0.9907    0.1902 H   0  0
   -0.0495    2.3456    0.1579 H   0  0
   -2.2511    1.1530    0.1693 H   0  0
   -2.1809   -1.3120   -0.5425 H   0  0
   -1.6720   -0.9905    1.0992 H   0  0
   -0.7344    0.2334   -2.1454 H   0  0
   -1.3624    1.7694   -1.9896 H   0  0
   -2.3559    0.4167   -2.0319 H   0  0
   -0.4657    2.1388    2.3010 H   0  0
    1.4653   -0.9335    2.2506 H   0  0
   -0.1335   -1.5123    1.8532 H   0  0
    0.5051   -1.7481    3.4639 H   0  0
    2.8352    0.5715   -2.4556 H   0  0
    1.5375   -0.5951   -2.5685 H   0  0
    1.4547    2.0929   -4.0510 H   0  0
    2.2192    0.6944   -4.7704 H   0  0
   -0.0666   -0.5135   -4.6029 H   0  0
   -0.7546    1.0364   -4.1758 H   0  0
    2.0987    2.6462   -8.2275 H   0  0
    1.8907    2.0096   -5.8668 H   0  0
   -1.7641   -0.0021   -6.7250 H   0  0
   -1.5473    0.6232   -9.0986 H   0  0
    1.1137    2.9244  -13.9140 H   0  0
    2.7391    3.6012  -12.1954 H   0  0
    2.3520    3.0159   -9.8419 H   0  0
   -1.3016    1.1016  -10.9101 H   0  0
   -0.9062    1.6766  -13.2730 H   0  0
  1  2  1  0
  1  6  2  0
  2  3  1  0
  3  4  1  0
  4  5  1  0
  5  6  1  0
  6  7  1  0
  7  8  2  0
  7  9  1  0
  4 10  1  0
  3 11  1  0
  2 15  1  0
 11 12  1  0
 12 13  1  0
 12 14  2  0
 15 16  1  0
 16 17  1  0
 17 18  1  0
 18 19  1  0
 22 19  2  0
 19 23  1  0
 20 21  2  0
 20 24  1  0
 21 22  1  0
 23 24  2  0
 20 25  1  0
 28 25  2  0
 25 29  1  0
 26 27  2  0
 26 30  1  0
 27 28  1  0
 29 30  2  0
  1 31  1  0
  2 32  1  0
  3 33  1  0
  4 34  1  0
  5 35  1  0
  5 36  1  0
 10 37  1  0
 10 38  1  0
 10 39  1  0
 11 40  1  0
 13 41  1  0
 13 42  1  0
 13 43  1  0
 16 44  1  0
 16 45  1  0
 17 46  1  0
 17 47  1  0
 18 48  1  0
 18 49  1  0
 21 50  1  0
 22 51  1  0
 23 52  1  0
 24 53  1  0
 26 54  1  0
 27 55  1  0
 28 56  1  0
 29 57  1  0
 30 58  1  0
M  CHG  2   9  -1  10   1
M  END
> <Name>
BDB5007

> <Target>
Neuraminidase A

> <IC50_in_nM>
 90

> <Kd_from_ITC>
false

> <source_organism>
Influenza A virus (A/Puerto Rico/8/34/Mount Sinai(H1N1))

> <SourceTag>
NA

$$$$
BDB5008
  SciTegic07061217153D

 34 34  0  0  0  0            999 V2000
    1.3700   -0.8307    0.3788 C   0  0
    1.3942    0.6868    0.3876 C   0  0  2  0  0  0
   -0.0168    1.2679    0.5476 C   0  0  1  0  0  0
   -1.0581    0.5328   -0.4154 C   0  0  2  0  0  0
   -1.1153   -0.9359   -0.0449 C   0  0
    0.2530   -1.5565    0.1570 C   0  0
    0.3367   -3.0093    0.1680 C   0  0
    1.4266   -3.5668    0.3290 O   0  0
   -0.7923   -3.7490    0.0079 O   0  5
    1.9724    1.1442   -0.8303 O   0  0
   -0.4819    1.3342    2.0127 N   0  0
   -0.4107    0.3760    3.1383 C   0  0
   -0.0959   -1.0856    3.0927 C   0  0
   -0.6750    0.8308    4.2562 O   0  0
   -0.9436    0.7319   -1.9641 N   0  0
   -0.0739    0.0757   -3.0123 C   0  0
   -0.1870    0.4935   -4.2086 N   0  3
    0.8836   -0.9754   -2.8126 N   0  0
    2.2864   -1.3531    0.5580 H   0  0
    2.0420    1.0709    1.1866 H   0  0
    0.0282    2.3300    0.2694 H   0  0
   -2.0456    0.9612   -0.1887 H   0  0
   -1.6389   -1.4795   -0.8252 H   0  0
   -1.6953   -1.0500    0.8690 H   0  0
    1.4379    0.9047   -1.5624 H   0  0
   -0.7989    2.2342    2.2846 H   0  0
    0.8631   -1.0557    2.5192 H   0  0
   -0.8341   -1.4150    2.3206 H   0  0
   -0.0904   -1.5562    3.8970 H   0  0
   -1.4552    1.5501   -2.3191 H   0  0
   -0.8318    1.2137   -4.4251 H   0  0
    0.3706    0.0862   -4.9274 H   0  0
    1.0684   -1.3453   -1.9324 H   0  0
    1.4319   -1.3107   -3.6153 H   0  0
  1  2  1  0
  1  6  2  0
  2  3  1  0
  3  4  1  0
  4  5  1  0
  5  6  1  0
  6  7  1  0
  7  8  2  0
  7  9  1  0
  4 15  1  0
  3 11  1  0
  2 10  1  0
 11 12  1  0
 12 13  1  0
 12 14  2  0
 15 16  1  0
 16 18  1  0
 16 17  2  0
  1 19  1  0
  2 20  1  0
  3 21  1  0
  4 22  1  0
  5 23  1  0
  5 24  1  0
 10 25  1  0
 11 26  1  0
 13 27  1  0
 13 28  1  0
 13 29  1  0
 15 30  1  0
 17 31  1  0
 17 32  1  0
 18 33  1  0
 18 34  1  0
M  CHG  2   9  -1  17   1
M  END
> <Name>
BDB5008

> <Target>
Neuraminidase A

> <IC50_in_nM>
 100

> <Kd_from_ITC>
false

> <source_organism>
Influenza A virus (A/Puerto Rico/8/34/Mount Sinai(H1N1))

> <SourceTag>
NA

$$$$
BDB5228
  SciTegic07061217153D

 49 50  0  0  0  0            999 V2000
    1.1641   -0.8640   -0.2786 C   0  0
    1.2719    0.6296   -0.2401 C   0  0  2  0  0  0
   -0.0770    1.2599    0.3511 C   0  0  1  0  0  0
   -1.3737    0.6489   -0.2432 C   0  0  2  0  0  0
   -1.3907   -0.8398    0.0749 C   0  0
   -0.0081   -1.5275   -0.1823 C   0  0
    1.7569    1.0874   -1.6579 N   0  0
    1.8121    2.5553   -1.8131 C   0  0
    1.2574    0.3674   -2.8720 C   0  0
    0.9983    1.2975   -4.0916 C   0  0
    0.0508   -2.9778   -0.1777 C   0  0
    1.1456   -3.5461   -0.2580 O   0  0
   -1.0806   -3.7000    0.0008 O   0  5
   -1.4997    0.7650   -1.6458 N   0  3
   -0.2023    1.2549    1.8902 N   0  0
   -0.1064    0.1881    2.9200 C   0  0
    0.3885   -1.2192    2.7581 C   0  0
   -0.4211    0.5146    4.0695 O   0  0
   -0.1143    0.7036   -4.9641 C   0  0
   -2.1796   -0.3290   -6.5344 C   0  0
   -2.1013   -0.6555   -5.1909 C   0  0
   -1.0642   -0.1387   -4.4154 C   0  0
   -0.1983    1.0325   -6.3197 C   0  0
   -1.2224    0.5132   -7.0975 C   0  0
    2.0625   -1.4347   -0.3880 H   0  0
    2.0761    0.9670    0.4296 H   0  0
   -0.0564    2.3296    0.1183 H   0  0
   -2.2362    1.1597    0.1995 H   0  0
   -2.1465   -1.3247   -0.5310 H   0  0
   -1.6693   -0.9784    1.1153 H   0  0
    2.4753    2.9360   -1.0522 H   0  0
    0.8228    2.9383   -1.6168 H   0  0
    2.1374    2.8232   -2.7642 H   0  0
    1.9830   -0.3964   -3.1550 H   0  0
    0.3356   -0.1534   -2.6213 H   0  0
    1.8941    1.3869   -4.6697 H   0  0
    0.6999    2.2676   -3.7444 H   0  0
   -0.8557    0.1938   -2.0294 H   0  0
   -1.3650    1.7410   -1.9476 H   0  0
   -2.4211    0.4310   -1.9378 H   0  0
   -0.4241    2.1429    2.2689 H   0  0
    1.3803   -1.0179    2.2827 H   0  0
   -0.2386   -1.5420    1.8904 H   0  0
    0.3858   -1.7717    3.5076 H   0  0
   -2.9715   -0.7215   -7.1375 H   0  0
   -2.8325   -1.3007   -4.7505 H   0  0
   -1.0023   -0.3980   -3.3791 H   0  0
    0.5277    1.6851   -6.7577 H   0  0
   -1.2780    0.7608   -8.1370 H   0  0
  1  2  1  0
  1  6  2  0
  2  3  1  0
  3  4  1  0
  4  5  1  0
  5  6  1  0
  2  7  1  0
  7  9  1  0
  7  8  1  0
  9 10  1  0
  6 11  1  0
 11 12  2  0
 11 13  1  0
  4 14  1  0
  3 15  1  0
 15 16  1  0
 16 17  1  0
 16 18  2  0
 10 19  1  0
 22 19  2  0
 19 23  1  0
 20 21  2  0
 20 24  1  0
 21 22  1  0
 23 24  2  0
  1 25  1  0
  2 26  1  0
  3 27  1  0
  4 28  1  0
  5 29  1  0
  5 30  1  0
  8 31  1  0
  8 32  1  0
  8 33  1  0
  9 34  1  0
  9 35  1  0
 10 36  1  0
 10 37  1  0
 14 38  1  0
 14 39  1  0
 14 40  1  0
 15 41  1  0
 17 42  1  0
 17 43  1  0
 17 44  1  0
 20 45  1  0
 21 46  1  0
 22 47  1  0
 23 48  1  0
 24 49  1  0
M  CHG  2  13  -1  14   1
M  END
> <Name>
BDB5228

> <Target>
Neuraminidase A

> <IC50_in_nM>
 100

> <Kd_from_ITC>
false

> <source_organism>
Influenza A virus (A/Puerto Rico/8/34(H1N1))

> <SourceTag>
NA

$$$$
BDB5219
  SciTegic07061217153D

 37 37  0  0  0  0            999 V2000
    1.1204   -0.8467   -0.3298 C   0  0
    1.2022    0.6554   -0.2242 C   0  0  2  0  0  0
   -0.1352    1.2627    0.3402 C   0  0  1  0  0  0
   -1.4088    0.6502   -0.3022 C   0  0  2  0  0  0
   -1.4028   -0.8468    0.0497 C   0  0
   -0.0464   -1.5266   -0.2196 C   0  0
    0.0206   -2.9797   -0.2628 C   0  0
    1.1023   -3.5476   -0.3986 O   0  0
   -0.3211    1.0781    1.8079 N   0  5
    0.1196    0.0207    2.6654 C   0  0
    0.7832   -0.9364    2.2659 O   0  0
    1.6032    1.2411   -1.5138 O   0  0
   -1.5499    0.7949   -1.7447 N   0  3
   -1.1163   -3.7061   -0.0904 O   0  5
    1.4497    0.4019   -2.6597 C   0  0
    1.0516    1.3056   -3.8505 C   0  0
    0.5639    0.4414   -5.0253 C   0  0
   -0.2784    0.0618    4.1073 C   0  0
    0.7279    0.6566    4.8364 F   0  0
   -1.4404    0.7937    4.2445 F   0  0
   -0.4804   -1.2235    4.5679 F   0  0
    2.0214   -1.3986   -0.4987 H   0  0
    2.0044    0.9527    0.4677 H   0  0
   -0.1042    2.3487    0.1751 H   0  0
   -2.2813    1.1358    0.1507 H   0  0
   -2.1723   -1.3511   -0.5259 H   0  0
   -1.6579   -0.9666    1.1006 H   0  0
   -0.8650    0.2723   -2.2016 H   0  0
   -1.4872    1.7868   -2.0096 H   0  0
   -2.4655    0.4222   -2.0244 H   0  0
    2.3720   -0.0847   -2.8742 H   0  0
    0.6828   -0.3106   -2.4824 H   0  0
    1.8998    1.8818   -4.1611 H   0  0
    0.2650    1.9712   -3.5467 H   0  0
   -0.2839   -0.1332   -4.7134 H   0  0
    1.3489   -0.2215   -5.3262 H   0  0
    0.2899    1.0694   -5.8458 H   0  0
  1  2  1  0
  1  6  2  0
  2  3  1  0
  3  4  1  0
  4  5  1  0
  5  6  1  0
  6  7  1  0
  7  8  2  0
  7 14  1  0
  4 13  1  0
  3  9  1  0
  2 12  1  0
  9 10  1  0
 10 18  1  0
 10 11  2  0
 12 15  1  0
 15 16  1  0
 16 17  1  0
 18 21  1  0
 18 19  1  0
 18 20  1  0
  1 22  1  0
  2 23  1  0
  3 24  1  0
  4 25  1  0
  5 26  1  0
  5 27  1  0
 13 28  1  0
 13 29  1  0
 13 30  1  0
 15 31  1  0
 15 32  1  0
 16 33  1  0
 16 34  1  0
 17 35  1  0
 17 36  1  0
 17 37  1  0
M  CHG  3   9  -1  13   1  14  -1
M  END
> <Name>
BDB5219

> <Target>
Neuraminidase A

> <IC50_in_nM>
 100

> <Kd_from_ITC>
false

> <source_organism>
Influenza A virus (A/Puerto Rico/8/34(H1N1))

> <SourceTag>
NA

$$$$
BDB4977
  SciTegic07061217153D

 46 47  0  0  0  0            999 V2000
    1.0984   -0.4152    0.3578 C   0  0  1  0  0  0
    0.0714   -1.2746   -0.4868 C   0  0  1  0  0  0
   -1.3594   -0.8429   -0.1451 C   0  0  2  0  0  0
   -1.4467    0.6615   -0.2199 C   0  0
   -0.3617    1.4554   -0.0855 C   0  0
    0.9600    0.9731    0.1172 O   0  0
   -0.5033    2.9032   -0.2089 C   0  0
    0.5101    3.6157   -0.1396 O   0  0
   -1.7144    3.4671   -0.3925 O   0  5
   -1.7817   -1.3227    1.1913 N   0  3
    0.2470   -1.3328   -2.0023 N   0  0
    0.6656    1.1421   -2.8196 C   0  0
    0.3853   -0.3038   -3.0263 C   0  0
    0.3207   -0.6886   -4.1995 O   0  0
    1.5090   -1.8293    2.2186 O   0  0
    1.0237   -0.7432    1.8845 C   0  0
   -0.1021    1.4562    2.9593 C   0  0  1  0  0  0
    0.2252    1.9750    4.3703 C   0  0
   -0.0937    0.7019    5.1541 C   0  0
    0.7651   -0.2891    4.3511 C   0  0  1  0  0  0
    0.5236    0.1136    2.9945 N   0  0
    2.2499   -0.0287    4.6712 C   0  0
   -1.6535    1.3781    2.9253 C   0  0
    2.1066   -0.7326    0.0521 H   0  0
    0.1760   -2.3295   -0.1994 H   0  0
   -2.0536   -1.3102   -0.8542 H   0  0
   -2.4013    1.1156   -0.3852 H   0  0
   -1.2086   -0.9655    1.9073 H   0  0
   -1.7290   -2.3504    1.2063 H   0  0
   -2.7501   -1.0307    1.3654 H   0  0
    0.1970   -2.2542   -2.3709 H   0  0
    1.5768    1.0803   -2.1816 H   0  0
   -0.1377    1.3999   -2.0920 H   0  0
    0.7267    1.6846   -3.5852 H   0  0
    0.2849    2.1113    2.1801 H   0  0
   -0.4273    2.7225    4.6320 H   0  0
    1.2284    2.1926    4.4428 H   0  0
    0.2645    0.7797    6.1173 H   0  0
   -1.0889    0.4652    5.0556 H   0  0
    0.5073   -1.3382    4.5494 H   0  0
    2.4728    1.0098    4.5681 H   0  0
    2.8733   -0.5989    4.0193 H   0  0
    2.4482   -0.3282    5.6938 H   0  0
   -1.9814    0.8455    3.7996 H   0  0
   -1.9418    0.8182    2.0541 H   0  0
   -2.0716    2.3427    2.9007 H   0  0
  6  1  1  0
  6  5  1  0
  1  2  1  0
  2  3  1  0
  3  4  1  0
  4  5  2  0
  5  7  1  0
  7  8  2  0
  7  9  1  0
  3 10  1  0
  2 11  1  0
 11 13  1  0
 13 12  1  0
 13 14  2  0
  1 16  1  0
 16 15  2  0
 16 21  1  0
 21 17  1  0
 21 20  1  0
 17 18  1  0
 18 19  1  0
 19 20  1  0
 20 22  1  0
 17 23  1  0
  1 24  1  0
  2 25  1  0
  3 26  1  0
  4 27  1  0
 10 28  1  0
 10 29  1  0
 10 30  1  0
 11 31  1  0
 12 32  1  0
 12 33  1  0
 12 34  1  0
 17 35  1  0
 18 36  1  0
 18 37  1  0
 19 38  1  0
 19 39  1  0
 20 40  1  0
 22 41  1  0
 22 42  1  0
 22 43  1  0
 23 44  1  0
 23 45  1  0
 23 46  1  0
M  CHG  2   9  -1  10   1
M  END
> <Name>
BDB4977

> <Target>
Neuraminidase A

> <IC50_in_nM>
  110

> <Kd_from_ITC>
false

> <source_organism>
Influenza A virus (A/Singapore/1/57(H2N2))

> <SourceTag>
NA

$$$$
BDB4983
  SciTegic07061217153D

 38 38  0  0  0  0            999 V2000
    1.1183   -0.8649   -0.3469 C   0  0
    1.2280    0.6352   -0.2076 C   0  0  2  0  0  0
   -0.0799    1.2773    0.3790 C   0  0  1  0  0  0
   -1.3734    0.6582   -0.2470 C   0  0  2  0  0  0
   -1.3898   -0.8352    0.1052 C   0  0
   -0.0566   -1.5330   -0.2264 C   0  0
   -0.0048   -2.9880   -0.3181 C   0  0
    1.0660   -3.5618   -0.4946 O   0  0
   -1.1468   -3.7084   -0.1486 O   0  5
   -1.5099    0.7797   -1.6948 N   0  3
   -0.2705    1.2603    1.8850 N   0  0
    0.0346    0.2567    2.9036 C   0  0
    0.7715   -1.0339    2.7135 C   0  0
   -0.3286    0.5205    4.0555 O   0  0
    1.5520    1.2418   -1.5033 O   0  0
    1.5023    0.3742   -2.6386 C   0  0
    1.0665    1.2510   -3.8398 C   0  0
    0.6117    0.3665   -5.0108 C   0  0
    2.0067   -1.4257   -0.5497 H   0  0
    2.0669    0.9151    0.4482 H   0  0
   -0.0360    2.3485    0.1419 H   0  0
   -2.2400    1.1635    0.1949 H   0  0
   -2.1893   -1.3211   -0.4389 H   0  0
   -1.5974   -0.9495    1.1641 H   0  0
   -0.8235    0.2453   -2.1440 H   0  0
   -1.4414    1.7668   -1.9748 H   0  0
   -2.4283    0.4081   -1.9710 H   0  0
   -0.6846    2.0876    2.2448 H   0  0
    1.6983   -0.6648    2.2178 H   0  0
    0.1905   -1.4746    1.8715 H   0  0
    0.8901   -1.5785    3.4707 H   0  0
    2.4640   -0.0308   -2.8238 H   0  0
    0.7875   -0.3877   -2.4777 H   0  0
    1.8914    1.8610   -4.1548 H   0  0
    0.2548    1.8904   -3.5397 H   0  0
   -0.2117   -0.2403   -4.6915 H   0  0
    1.4230   -0.2686   -5.3051 H   0  0
    0.3140    0.9767   -5.8319 H   0  0
  1  2  1  0
  1  6  2  0
  2  3  1  0
  3  4  1  0
  4  5  1  0
  5  6  1  0
  6  7  1  0
  7  8  2  0
  7  9  1  0
  4 10  1  0
  3 11  1  0
 11 12  1  0
 12 13  1  0
 12 14  2  0
  2 15  1  0
 15 16  1  0
 16 17  1  0
 17 18  1  0
  1 19  1  0
  2 20  1  0
  3 21  1  0
  4 22  1  0
  5 23  1  0
  5 24  1  0
 10 25  1  0
 10 26  1  0
 10 27  1  0
 11 28  1  0
 13 29  1  0
 13 30  1  0
 13 31  1  0
 16 32  1  0
 16 33  1  0
 17 34  1  0
 17 35  1  0
 18 36  1  0
 18 37  1  0
 18 38  1  0
M  CHG  2   9  -1  10   1
M  END
> <Name>
BDB4983

> <Target>
Neuraminidase A

> <IC50_in_nM>
 180

> <Kd_from_ITC>
false

> <source_organism>
Influenza A virus (A/Puerto Rico/8/34/Mount Sinai(H1N1))

> <SourceTag>
NA

$$$$
BDB5222
  SciTegic07061217153D

 41 41  0  0  0  0            999 V2000
    1.1748   -0.9735   -0.2243 C   0  0
    1.1948    0.5295   -0.3608 C   0  0  2  0  0  0
   -0.1092    1.1880    0.2179 C   0  0  1  0  0  0
   -1.3591    0.4334   -0.3413 C   0  0  2  0  0  0
   -1.3288   -1.0164    0.1624 C   0  0
    0.0484   -1.6793   -0.0256 C   0  0
    0.1516   -3.1271    0.0846 C   0  0
    1.2551   -3.6748   -0.0148 O   0  0
   -0.2298    1.3467    1.7402 N   0  0
    1.3233    0.7798   -1.7965 O   0  0
   -0.9612   -3.8711    0.3001 O   0  5
    1.5233    2.1826   -2.0772 C   0  0
    2.0613    2.4007   -3.5181 C   0  0
    1.0286    1.9805   -4.5757 C   0  0
    0.0260    0.4332    2.8662 C   0  0
    0.7078   -0.8986    2.8258 C   0  0
   -0.3145    0.8364    3.9841 O   0  0
   -1.4732    0.4251   -1.8348 N   0  0
   -0.8506   -0.6238   -2.5987 C   0  0
   -0.7372   -0.5305   -3.8558 N   0  3
    2.1025   -1.5028   -0.2888 H   0  0
    2.0837    0.9643    0.1169 H   0  0
   -0.1444    2.2228   -0.1366 H   0  0
   -2.2580    0.9364    0.0421 H   0  0
   -2.0755   -1.5937   -0.3682 H   0  0
   -1.5909   -1.0333    1.2158 H   0  0
   -0.5653    2.2377    2.0218 H   0  0
    2.2259    2.5906   -1.3698 H   0  0
    0.5852    2.7057   -1.9637 H   0  0
    2.9627    1.8248   -3.6538 H   0  0
    2.3052    3.4452   -3.6539 H   0  0
    0.1365    2.5604   -4.4285 H   0  0
    0.7941    0.9427   -4.4279 H   0  0
    1.4121    2.1360   -5.5468 H   0  0
    1.6538   -0.6196    2.3047 H   0  0
    0.1164   -1.3980    2.0226 H   0  0
    0.7958   -1.3653    3.6335 H   0  0
   -1.6007    1.3267   -2.3138 H   0  0
   -0.4791   -1.4932   -2.0978 H   0  0
   -1.0922    0.2648   -4.3264 H   0  0
   -0.2935   -1.2572   -4.3687 H   0  0
  1  2  1  0
  1  6  2  0
  2  3  1  0
  3  4  1  0
  4  5  1  0
  5  6  1  0
  6  7  1  0
  7  8  2  0
  7 11  1  0
  4 18  1  0
  3  9  1  0
  2 10  1  0
  9 15  1  0
 10 12  1  0
 12 13  1  0
 13 14  1  0
 15 16  1  0
 15 17  2  0
 18 19  1  0
 19 20  2  0
  1 21  1  0
  2 22  1  0
  3 23  1  0
  4 24  1  0
  5 25  1  0
  5 26  1  0
  9 27  1  0
 12 28  1  0
 12 29  1  0
 13 30  1  0
 13 31  1  0
 14 32  1  0
 14 33  1  0
 14 34  1  0
 16 35  1  0
 16 36  1  0
 16 37  1  0
 18 38  1  0
 19 39  1  0
 20 40  1  0
 20 41  1  0
M  CHG  2  11  -1  20   1
M  END
> <Name>
BDB5222

> <Target>
Neuraminidase A

> <IC50_in_nM>
 140

> <Kd_from_ITC>
false

> <source_organism>
Influenza A virus (A/Puerto Rico/8/34(H1N1))

> <SourceTag>
NA

$$$$
BDB5244
  SciTegic07061217153D

 48 48  0  0  0  0            999 V2000
    1.2130   -0.6698    0.3220 C   0  0  2  0  0  0
    0.0244   -1.3677   -0.3072 C   0  0  2  0  0  0
   -1.2430   -0.7042    0.2142 C   0  0
   -1.1498    0.7773   -0.0278 C   0  0
   -0.0210    1.3653   -0.1340 N   0  0
    1.1591    0.7222   -0.0179 N   0  0
   -2.3793    1.5620   -0.1325 C   0  0
   -2.3193    2.7811   -0.3277 O   0  0
   -3.5868    0.9511   -0.0153 O   0  5
    2.3508    1.4352   -0.1867 C   0  0
    3.4356    0.8649   -0.0242 O   0  0
    2.3207    2.8926   -0.5556 C   0  0
    1.7517    3.0541   -1.9851 C   0  0
    3.7505    3.4696   -0.4864 C   0  0
    3.7222    4.9804   -0.8007 C   0  0
    2.5991    2.2403   -2.9865 C   0  0
    2.4586   -1.2553   -0.1677 N   0  0
    2.9855   -1.0661   -1.4805 C   0  0
    2.2688   -0.2597   -2.5387 C   0  0
    4.0693   -1.5903   -1.7659 O   0  0
    0.0265   -2.7764    0.0381 N   0  0
   -0.0306   -3.2363    1.3737 C   0  0
   -0.0932   -2.3443    2.4522 N   0  0
   -0.0249   -4.4864    1.6008 N   0  3
    1.1791   -0.7908    1.4148 H   0  0
    0.0755   -1.2854   -1.4029 H   0  0
   -2.1165   -1.1095   -0.3175 H   0  0
   -1.3427   -0.8948    1.2930 H   0  0
    1.6769    3.4388    0.1496 H   0  0
    1.7717    4.1165   -2.2695 H   0  0
    0.7130    2.6926   -2.0079 H   0  0
    4.3891    2.9561   -1.2201 H   0  0
    4.1592    3.3142    0.5230 H   0  0
    3.0841    5.4936   -0.0663 H   0  0
    3.3131    5.1351   -1.8100 H   0  0
    4.7425    5.3885   -0.7506 H   0  0
    2.5777    1.1782   -2.7013 H   0  0
    3.6374    2.6027   -2.9622 H   0  0
    2.1907    2.3583   -4.0011 H   0  0
    2.9956   -1.8477    0.4817 H   0  0
    2.1122    0.7190   -2.0616 H   0  0
    1.2791   -0.7352   -2.6055 H   0  0
    2.7858   -0.1936   -3.5074 H   0  0
    0.0714   -3.4707   -0.7215 H   0  0
   -0.0975   -1.3320    2.2618 H   0  0
   -0.1344   -2.6916    3.4210 H   0  0
    0.0207   -5.1600    0.8229 H   0  0
   -0.0663   -4.8271    2.5719 H   0  0
  5  6  1  0
  5  4  2  0
  6  1  1  0
  1  2  1  0
  2  3  1  0
  3  4  1  0
  4  7  1  0
  7  8  2  0
  7  9  1  0
  6 10  1  0
 10 11  2  0
 10 12  1  0
 12 14  1  0
 12 13  1  0
 14 15  1  0
 13 16  1  0
  1 17  1  0
 17 18  1  0
 18 19  1  0
 18 20  2  0
  2 21  1  0
 21 22  1  0
 22 24  2  0
 22 23  1  0
  1 25  1  0
  2 26  1  0
  3 27  1  0
  3 28  1  0
 12 29  1  0
 13 30  1  0
 13 31  1  0
 14 32  1  0
 14 33  1  0
 15 34  1  0
 15 35  1  0
 15 36  1  0
 16 37  1  0
 16 38  1  0
 16 39  1  0
 17 40  1  0
 19 41  1  0
 19 42  1  0
 19 43  1  0
 21 44  1  0
 23 45  1  0
 23 46  1  0
 24 47  1  0
 24 48  1  0
M  CHG  2   9  -1  24   1
M  END
> <Name>
BDB5244

> <Target>
Neuraminidase A

> <IC50_in_nM>
 140

> <Kd_from_ITC>
false

> <source_organism>
Influenza A virus (A/Puerto Rico/8/34(H1N1))

> <SourceTag>
NA

$$$$
BDB4986
  SciTegic07061217153D

 47 47  0  0  0  0            999 V2000
    1.0376   -0.8511   -0.4118 C   0  0
    1.0949    0.6452   -0.3511 C   0  0  2  0  0  0
   -0.1224    1.2798    0.3798 C   0  0  1  0  0  0
   -1.4183    0.6451   -0.2283 C   0  0  2  0  0  0
   -1.4403   -0.8514    0.1038 C   0  0
   -0.1227   -1.5410   -0.2365 C   0  0
   -0.0330   -2.9952   -0.2929 C   0  0
    1.0374   -3.5507   -0.4771 O   0  0
   -1.1665   -3.7311   -0.1040 O   0  5
   -1.5189    0.7796   -1.7022 N   0  3
   -0.2295    1.2661    1.9046 N   0  0
    0.0528    0.2355    2.9004 C   0  0
    0.7639   -1.0604    2.6759 C   0  0
   -0.2934    0.4850    4.0619 O   0  0
    0.9923    1.1351   -1.7118 O   0  0
    1.9476    0.5859   -2.6177 C   0  0
    1.6286    1.0924   -4.0692 C   0  0
    0.3494    0.4373   -4.6897 C   0  0
    0.1137    1.0510   -6.1051 C   0  0
   -1.0052    0.3070   -6.8770 C   0  0
   -1.2035    0.9705   -8.2626 C   0  0
    1.9394   -1.3956   -0.5992 H   0  0
    2.0516    0.9943    0.0760 H   0  0
   -0.1037    2.3481    0.1305 H   0  0
   -2.2875    1.1458    0.2105 H   0  0
   -2.2416   -1.3269   -0.4457 H   0  0
   -1.6458   -0.9790    1.1611 H   0  0
   -0.7964    0.2415   -2.1637 H   0  0
   -1.4466    1.7725   -1.9671 H   0  0
   -2.4250    0.4107   -2.0060 H   0  0
   -0.5982    2.1054    2.2885 H   0  0
    1.6986   -0.6986    2.1918 H   0  0
    0.1759   -1.4705    1.8246 H   0  0
    0.8715   -1.6271    3.4213 H   0  0
    2.9307    0.9035   -2.3371 H   0  0
    1.8925   -0.4801   -2.5930 H   0  0
    2.4796    0.8873   -4.7133 H   0  0
    1.4996    2.1742   -4.0488 H   0  0
   -0.4929    0.6400   -4.0694 H   0  0
    0.4946   -0.6174   -4.7777 H   0  0
    1.0304    1.0008   -6.6732 H   0  0
   -0.1580    2.0936   -6.0015 H   0  0
   -1.9181    0.3606   -6.3231 H   0  0
   -0.7263   -0.7195   -7.0096 H   0  0
   -0.2919    0.9171   -8.8191 H   0  0
   -1.4821    1.9948   -8.1327 H   0  0
   -1.9786    0.4560   -8.7985 H   0  0
  1  2  1  0
  1  6  2  0
  2  3  1  0
  3  4  1  0
  4  5  1  0
  5  6  1  0
  6  7  1  0
  7  8  2  0
  7  9  1  0
  4 10  1  0
  3 11  1  0
 11 12  1  0
 12 13  1  0
 12 14  2  0
  2 15  1  0
 15 16  1  0
 16 17  1  0
 17 18  1  0
 18 19  1  0
 19 20  1  0
 20 21  1  0
  1 22  1  0
  2 23  1  0
  3 24  1  0
  4 25  1  0
  5 26  1  0
  5 27  1  0
 10 28  1  0
 10 29  1  0
 10 30  1  0
 11 31  1  0
 13 32  1  0
 13 33  1  0
 13 34  1  0
 16 35  1  0
 16 36  1  0
 17 37  1  0
 17 38  1  0
 18 39  1  0
 18 40  1  0
 19 41  1  0
 19 42  1  0
 20 43  1  0
 20 44  1  0
 21 45  1  0
 21 46  1  0
 21 47  1  0
M  CHG  2   9  -1  10   1
M  END
> <Name>
BDB4986

> <Target>
Neuraminidase A

> <IC50_in_nM>
 150

> <Kd_from_ITC>
false

> <source_organism>
Influenza A virus (A/Puerto Rico/8/34/Mount Sinai(H1N1))

> <SourceTag>
NA

$$$$
BDB5233
  SciTegic07061217153D

 40 40  0  0  0  0            999 V2000
    1.1187   -0.9068   -0.3361 C   0  0
    1.2597    0.5936   -0.2409 C   0  0  2  0  0  0
   -0.0774    1.2512    0.2905 C   0  0  1  0  0  0
   -1.4128    0.5994   -0.2402 C   0  0  2  0  0  0
   -1.3937   -0.8673    0.1875 C   0  0
   -0.0523   -1.5658   -0.1748 C   0  0
   -0.0071   -3.0200   -0.2425 C   0  0
    1.0680   -3.5947   -0.4284 O   0  0
   -1.1405   -3.7403   -0.0503 O   0  5
   -1.7008    0.6227   -1.6718 N   0  3
   -0.2322    1.2963    1.8127 N   0  0
    0.0429    0.3079    2.8702 C   0  0
    0.7639   -1.0023    2.7324 C   0  0
   -0.3264    0.6114    4.0103 O   0  0
    1.7993    1.1183   -1.5752 N   0  3
    1.0232    0.7676   -2.7349 C   0  0
    1.5867    1.3414   -4.0300 C   0  0
    0.6337    0.9380   -5.1757 C   0  0
    1.9962   -1.4828   -0.5433 H   0  0
    2.0494    0.8807    0.4696 H   0  0
   -0.0429    2.3132    0.0135 H   0  0
   -2.2425    1.1329    0.2397 H   0  0
   -2.2077   -1.3898   -0.2947 H   0  0
   -1.5492   -0.9284    1.2582 H   0  0
   -1.0961    0.0092   -2.1560 H   0  0
   -1.6302    1.5869   -2.0336 H   0  0
   -2.6568    0.2773   -1.8141 H   0  0
   -0.6106    2.1485    2.1510 H   0  0
    1.7045   -0.6596    2.2409 H   0  0
    0.1905   -1.4560    1.8904 H   0  0
    0.8608   -1.5260    3.5040 H   0  0
    1.8760    2.1435   -1.5175 H   0  0
    2.7389    0.7238   -1.7150 H   0  0
    0.9771   -0.3160   -2.8161 H   0  0
    0.0070    1.1231   -2.6021 H   0  0
    2.5516    0.9364   -4.2107 H   0  0
    1.6325    2.4029   -3.9610 H   0  0
   -0.3394    1.3407   -5.0105 H   0  0
    0.5794   -0.1233   -5.2593 H   0  0
    1.0200    1.3393   -6.1104 H   0  0
  1  2  1  0
  1  6  2  0
  2  3  1  0
  3  4  1  0
  4  5  1  0
  5  6  1  0
  2 15  1  0
  6  7  1  0
  7  8  2  0
  7  9  1  0
  4 10  1  0
  3 11  1  0
 11 12  1  0
 12 13  1  0
 12 14  2  0
 15 16  1  0
 16 17  1  0
 17 18  1  0
  1 19  1  0
  2 20  1  0
  3 21  1  0
  4 22  1  0
  5 23  1  0
  5 24  1  0
 10 25  1  0
 10 26  1  0
 10 27  1  0
 11 28  1  0
 13 29  1  0
 13 30  1  0
 13 31  1  0
 15 32  1  0
 15 33  1  0
 16 34  1  0
 16 35  1  0
 17 36  1  0
 17 37  1  0
 18 38  1  0
 18 39  1  0
 18 40  1  0
M  CHG  3   9  -1  10   1  15   1
M  END
> <Name>
BDB5233

> <Target>
Neuraminidase A

> <IC50_in_nM>
 200

> <Kd_from_ITC>
false

> <source_organism>
Influenza A virus (A/Puerto Rico/8/34(H1N1))

> <SourceTag>
NA

$$$$
BDB5242
  SciTegic07061217153D

 40 40  0  0  0  0            999 V2000
    1.1498   -0.9029   -0.3026 C   0  0
    1.2806    0.5951   -0.1786 C   0  0  2  0  0  0
   -0.0643    1.2573    0.3221 C   0  0  1  0  0  0
   -1.3615    0.6327   -0.2921 C   0  0  2  0  0  0
   -1.3773   -0.8469    0.1077 C   0  0
   -0.0327   -1.5554   -0.2007 C   0  0
    0.0005   -3.0088   -0.2933 C   0  0
    1.0717   -3.5925   -0.4618 O   0  0
   -1.1484   -3.7189   -0.1504 O   0  5
   -1.5330    0.7049   -1.7347 N   0  3
   -0.2977    1.2677    1.8290 N   0  0
    0.0115    0.2927    2.8825 C   0  0
    0.7799   -0.9881    2.7417 C   0  0
   -0.3831    0.5737    4.0198 O   0  0
    1.3125    0.5247   -2.8214 C   0  0
    1.4728    1.4586   -4.0235 C   0  0
    0.7397    0.8357   -5.2283 C   0  0
    1.8466    1.1729   -1.5467 C   0  0
    2.0345   -1.4780   -0.4798 H   0  0
    2.0530    0.8784    0.5512 H   0  0
   -0.0093    2.3245    0.0684 H   0  0
   -2.2195    1.1586    0.1447 H   0  0
   -2.1739   -1.3510   -0.4230 H   0  0
   -1.5868   -0.9271    1.1688 H   0  0
   -0.8849    0.1287   -2.1764 H   0  0
   -1.4429    1.6803   -2.0553 H   0  0
   -2.4674    0.3522   -1.9716 H   0  0
   -0.7445    2.0899    2.1603 H   0  0
    1.7076   -0.6110    2.2523 H   0  0
    0.2241   -1.4622    1.8998 H   0  0
    0.8957   -1.5096    3.5137 H   0  0
    1.8503   -0.3920   -3.0082 H   0  0
    0.2706    0.2880   -2.6920 H   0  0
    2.5067    1.5697   -4.2548 H   0  0
    1.0430    2.4100   -3.7972 H   0  0
   -0.2984    0.7228   -5.0066 H   0  0
    1.1639   -0.1155   -5.4629 H   0  0
    0.8468    1.4882   -6.0838 H   0  0
    2.9423    1.0880   -1.5425 H   0  0
    1.6401    2.2543   -1.5886 H   0  0
  1  2  1  0
  1  6  2  0
  2  3  1  0
  3  4  1  0
  4  5  1  0
  5  6  1  0
  2 18  1  0
  6  7  1  0
  7  8  2  0
  7  9  1  0
  4 10  1  0
  3 11  1  0
 11 12  1  0
 12 13  1  0
 12 14  2  0
 18 15  1  0
 15 16  1  0
 16 17  1  0
  1 19  1  0
  2 20  1  0
  3 21  1  0
  4 22  1  0
  5 23  1  0
  5 24  1  0
 10 25  1  0
 10 26  1  0
 10 27  1  0
 11 28  1  0
 13 29  1  0
 13 30  1  0
 13 31  1  0
 15 32  1  0
 15 33  1  0
 16 34  1  0
 16 35  1  0
 17 36  1  0
 17 37  1  0
 17 38  1  0
 18 39  1  0
 18 40  1  0
M  CHG  2   9  -1  10   1
M  END
> <Name>
BDB5242

> <Target>
Neuraminidase A

> <IC50_in_nM>
 220

> <Kd_from_ITC>
false

> <source_organism>
Influenza A virus (A/Puerto Rico/8/34(H1N1))

> <SourceTag>
NA

$$$$
BDB5257
  SciTegic07061217153D

 41 42  0  0  0  0            999 V2000
    1.0540   -0.9352   -0.4077 C   0  0
    1.2311    0.5596   -0.3023 C   0  0  2  0  0  0
   -0.0753    1.2528    0.2682 C   0  0  1  0  0  0
   -1.4265    0.6116   -0.2293 C   0  0  2  0  0  0
   -1.4208   -0.8514    0.2177 C   0  0
   -0.1198   -1.5745   -0.1969 C   0  0
   -0.0970   -3.0278   -0.2772 C   0  0
    0.9576   -3.6151   -0.5163 O   0  0
   -1.2322   -3.7333   -0.0374 O   0  5
   -1.7159    0.6169   -1.6541 N   0  3
   -0.2133    1.2889    1.7907 N   0  0
    0.1186    0.3074    2.8347 C   0  0
    0.9019   -0.9639    2.6720 C   0  0
   -0.2551    0.5800    3.9815 O   0  0
    3.7453    1.0057   -3.1477 C   0  0
    1.6593    1.4725   -4.0700 C   0  0
    0.9710    0.8946   -2.8257 C   0  0
    3.0818    0.4322   -1.8754 C   0  0
    2.8963    0.7960   -4.2786 O   0  0
    1.7847    1.0894   -1.6362 N   0  0
    1.9085   -1.5255   -0.6649 H   0  0
    2.0428    0.8058    0.3978 H   0  0
   -0.0291    2.3143   -0.0097 H   0  0
   -2.2463    1.1581    0.2550 H   0  0
   -2.2654   -1.3615   -0.2204 H   0  0
   -1.5255   -0.8959    1.2941 H   0  0
   -1.0934    0.0061   -2.1321 H   0  0
   -1.6589    1.5776   -2.0234 H   0  0
   -2.6684    0.2562   -1.7919 H   0  0
   -0.6268    2.1218    2.1381 H   0  0
    1.8198   -0.5715    2.1768 H   0  0
    0.3430   -1.4374    1.8323 H   0  0
    1.0324   -1.4914    3.4384 H   0  0
    4.6865    0.5144   -3.3116 H   0  0
    3.9145    2.0558   -3.0180 H   0  0
    1.0286    1.3354   -4.9212 H   0  0
    1.8434    2.5174   -3.9229 H   0  0
    0.0190    1.3782   -2.6894 H   0  0
    0.7994   -0.1610   -2.9712 H   0  0
    3.7270    0.5977   -1.0311 H   0  0
    2.9306   -0.6225   -1.9978 H   0  0
  1  2  1  0
  1  6  2  0
  2  3  1  0
  3  4  1  0
  4  5  1  0
  5  6  1  0
  6  7  1  0
  7  8  2  0
  7  9  1  0
  4 10  1  0
  3 11  1  0
  2 20  1  0
 11 12  1  0
 12 13  1  0
 12 14  2  0
 17 20  1  0
 20 18  1  0
 15 19  1  0
 15 18  1  0
 19 16  1  0
 16 17  1  0
  1 21  1  0
  2 22  1  0
  3 23  1  0
  4 24  1  0
  5 25  1  0
  5 26  1  0
 10 27  1  0
 10 28  1  0
 10 29  1  0
 11 30  1  0
 13 31  1  0
 13 32  1  0
 13 33  1  0
 15 34  1  0
 15 35  1  0
 16 36  1  0
 16 37  1  0
 17 38  1  0
 17 39  1  0
 18 40  1  0
 18 41  1  0
M  CHG  2   9  -1  10   1
M  END
> <Name>
BDB5257

> <Target>
Neuraminidase A

> <IC50_in_nM>
 260

> <Kd_from_ITC>
false

> <source_organism>
Influenza A virus (A/Puerto Rico/8/34(H1N1))

> <SourceTag>
NA

$$$$
