MODEL        1
REMARK  Name = BDB4934
REMARK  10 active torsions:
REMARK  status: ('A' for Active; 'I' for Inactive)
REMARK    1  A    between atoms: C_1  and  N_13
REMARK    2  A    between atoms: C_2  and  N_10
REMARK    3  A    between atoms: C_4  and  C_5
REMARK    4  A    between atoms: C_14  and  C_15
REMARK    5  A    between atoms: C_17  and  O_18
REMARK    6  A    between atoms: C_17  and  C_19
REMARK    7  A    between atoms: C_17  and  C_23
REMARK    8  A    between atoms: C_19  and  C_20
REMARK    9  A    between atoms: C_19  and  O_21
REMARK   10  A    between atoms: C_20  and  O_22
REMARK                            x       y       z     vdW  Elec       q    Type
REMARK                         _______ _______ _______ _____ _____    ______ ____
ROOT
ATOM      1  C   UNL     1       1.181  -0.673   0.390  0.00  0.00    +0.000 C 
ATOM      2  C   UNL     1       0.010  -1.449  -0.183  0.00  0.00    +0.000 C 
ATOM      3  C   UNL     1      -1.230  -0.660   0.030  0.00  0.00    +0.000 C 
ATOM      4  C   UNL     1      -1.201   0.674   0.118  0.00  0.00    +0.000 C 
ATOM      5  O   UNL     1      -0.003   1.432   0.007  0.00  0.00    +0.000 OA
ATOM      6  C   UNL     1       1.181   0.669  -0.318  0.00  0.00    +0.000 C 
ENDROOT
BRANCH   2   8
ATOM      7  C   UNL     1      -0.299  -2.896   1.849  0.00  0.00    +0.000 C 
ATOM      8  N   UNL     1      -0.099  -2.746   0.458  0.00  0.00    +0.000 N 
ATOM      9  N   UNL     1      -0.386  -4.065   2.341  0.00  0.00    +0.000 N 
ATOM     10  N   UNL     1      -0.405  -1.786   2.697  0.00  0.00    +0.000 N 
ATOM     11  H   UNL     1      -0.028  -3.592  -0.125  0.00  0.00    +0.000 HD
ATOM     12  H   UNL     1      -0.311  -4.895   1.736  0.00  0.00    +0.000 HD
ATOM     13  H   UNL     1      -0.531  -4.180   3.354  0.00  0.00    +0.000 HD
ATOM     14  H   UNL     1      -0.335  -0.842   2.293  0.00  0.00    +0.000 HD
ATOM     15  H   UNL     1      -0.551  -1.909   3.709  0.00  0.00    +0.000 HD
ENDBRANCH   2   8
BRANCH   1  16
ATOM     16  N   UNL     1       2.421  -1.398   0.082  0.00  0.00    +0.000 N 
ATOM     17  C   UNL     1       2.896  -1.759  -1.227  0.00  0.00    +0.000 C 
ATOM     18  C   UNL     1       2.154  -1.428  -2.507  0.00  0.00    +0.000 C 
ATOM     19  O   UNL     1       3.966  -2.372  -1.313  0.00  0.00    +0.000 OA
ATOM     20  H   UNL     1       3.008  -1.675   0.881  0.00  0.00    +0.000 HD
ENDBRANCH   1  16
BRANCH   4  21
ATOM     21  C   UNL     1      -2.455   1.386   0.370  0.00  0.00    +0.000 C 
ATOM     22  O   UNL     1      -2.458   2.618   0.469  0.00  0.00    +0.000 OA
ATOM     23  O   UNL     1      -3.616   0.691   0.494  0.00  0.00    +0.000 OA
ENDBRANCH   4  21
BRANCH   6  24
ATOM     24  C   UNL     1       2.428   1.486   0.087  0.00  0.00    +0.000 C 
BRANCH  24  25
ATOM     25  O   UNL     1       3.603   0.751  -0.260  0.00  0.00    +0.000 OA
ATOM     26  H   UNL     1       3.619   0.589  -1.237  0.00  0.00    +0.000 HD
ENDBRANCH  24  25
BRANCH  24  27
ATOM     27  C   UNL     1       2.428   1.751   1.609  0.00  0.00    +0.000 C 
BRANCH  27  28
ATOM     28  O   UNL     1       1.269   2.504   1.977  0.00  0.00    +0.000 OA
ATOM     29  H   UNL     1       0.457   1.994   1.730  0.00  0.00    +0.000 HD
ENDBRANCH  27  28
BRANCH  27  30
ATOM     30  C   UNL     1       3.688   2.550   1.984  0.00  0.00    +0.000 C 
BRANCH  30  31
ATOM     31  O   UNL     1       3.692   2.799   3.392  0.00  0.00    +0.000 OA
ATOM     32  H   UNL     1       3.690   1.938   3.880  0.00  0.00    +0.000 HD
ENDBRANCH  30  31
ENDBRANCH  27  30
ENDBRANCH  24  27
ENDBRANCH   6  24
TORSDOF 9
ENDMDL
MODEL        2
REMARK  Name = BDB5204
REMARK  10 active torsions:
REMARK  status: ('A' for Active; 'I' for Inactive)
REMARK    1  A    between atoms: C_2  and  C_18
REMARK    2  A    between atoms: CA_4  and  C_5
REMARK    3  A    between atoms: C_8  and  C_9
REMARK    4  A    between atoms: C_9  and  C_10
REMARK    5  A    between atoms: C_9  and  N_14
REMARK    6  A    between atoms: C_10  and  C_11
REMARK    7  A    between atoms: C_11  and  C_12
REMARK    8  A    between atoms: C_11  and  C_13
REMARK    9  A    between atoms: C_15  and  C_16
REMARK   10  A    between atoms: C_19  and  C_20
REMARK                            x       y       z     vdW  Elec       q    Type
REMARK                         _______ _______ _______ _____ _____    ______ ____
ROOT
ATOM      1  C   UNL     1       0.671  -0.995   0.428  0.00  0.00    +0.000 C 
ATOM      2  C   UNL     1      -0.661  -0.994  -0.276  0.00  0.00    +0.000 C 
ATOM      3  N   UNL     1      -0.004   1.279  -0.064  0.00  0.00    +0.000 N 
ATOM      4  CA  UNL     1       1.183   0.362  -0.091  0.00  0.00    +0.000 C 
ATOM      5  C   UNL     1      -1.156   0.371   0.183  0.00  0.00    +0.000 C 
ATOM      6  H1  UNL     1       0.087   1.955   0.708  0.00  0.00    +0.000 HD
ATOM      7  H2  UNL     1      -0.112   1.748  -0.974  0.00  0.00    +0.000 HD
ENDROOT
BRANCH   2   8
ATOM      8  C   UNL     1      -1.564  -2.102   0.187  0.00  0.00    +0.000 C 
ATOM      9  C   UNL     1      -1.848  -2.230   1.481  0.00  0.00    +0.000 C 
ATOM     10  C   UNL     1      -1.268  -1.268   2.475  0.00  0.00    +0.000 C 
ENDBRANCH   2   8
BRANCH   4  11
ATOM     11  C   UNL     1       2.339   0.879   0.716  0.00  0.00    +0.000 C 
ATOM     12  O   UNL     1       2.199   1.096   1.925  0.00  0.00    +0.000 OA
ATOM     13  OXT UNL     1       3.538   1.102   0.119  0.00  0.00    +0.000 OA
ENDBRANCH   4  11
BRANCH   5  14
ATOM     14  C   UNL     1      -1.672   1.571  -0.730  0.00  0.00    +0.000 C 
BRANCH  14  15
ATOM     15  N   UNL     1      -2.232   0.878  -1.963  0.00  0.00    +0.000 N 
ATOM     16  C   UNL     1      -3.294   0.770  -2.884  0.00  0.00    +0.000 C 
ATOM     17  C   UNL     1      -4.701   0.501  -2.414  0.00  0.00    +0.000 C 
ATOM     18  O   UNL     1      -3.067   0.888  -4.090  0.00  0.00    +0.000 OA
ATOM     19  H   UNL     1      -1.273   1.000  -2.317  0.00  0.00    +0.000 HD
ENDBRANCH  14  15
BRANCH  14  20
ATOM     20  C   UNL     1      -3.012   2.176   0.040  0.00  0.00    +0.000 C 
BRANCH  20  21
ATOM     21  C   UNL     1      -2.081   3.412  -0.147  0.00  0.00    +0.000 C 
ATOM     22  C   UNL     1      -2.717   4.619   0.564  0.00  0.00    +0.000 C 
ATOM     23  C   UNL     1      -1.893   3.770  -1.637  0.00  0.00    +0.000 C 
ENDBRANCH  20  21
ENDBRANCH  14  20
ENDBRANCH   5  14
TORSDOF 6
ENDMDL
MODEL        3
REMARK  Name = BDB5200
REMARK  9 active torsions:
REMARK  status: ('A' for Active; 'I' for Inactive)
REMARK    1  A    between atoms: C_2  and  C_18
REMARK    2  A    between atoms: CA_4  and  C_5
REMARK    3  A    between atoms: C_8  and  C_9
REMARK    4  A    between atoms: C_9  and  C_10
REMARK    5  A    between atoms: C_9  and  N_14
REMARK    6  A    between atoms: C_10  and  C_11
REMARK    7  A    between atoms: C_11  and  C_12
REMARK    8  A    between atoms: C_11  and  C_13
REMARK    9  A    between atoms: C_15  and  C_16
REMARK                            x       y       z     vdW  Elec       q    Type
REMARK                         _______ _______ _______ _____ _____    ______ ____
ROOT
ATOM      1  C   UNL     1       0.671  -0.995   0.428  0.00  0.00    +0.000 C 
ATOM      2  C   UNL     1      -0.661  -0.994  -0.276  0.00  0.00    +0.000 C 
ATOM      3  N   UNL     1      -0.004   1.279  -0.064  0.00  0.00    +0.000 N 
ATOM      4  CA  UNL     1       1.183   0.362  -0.091  0.00  0.00    +0.000 C 
ATOM      5  C   UNL     1      -1.156   0.371   0.183  0.00  0.00    +0.000 C 
ATOM      6  H1  UNL     1       0.087   1.955   0.708  0.00  0.00    +0.000 HD
ATOM      7  H2  UNL     1      -0.112   1.748  -0.974  0.00  0.00    +0.000 HD
ENDROOT
BRANCH   2   8
ATOM      8  C   UNL     1      -1.566  -2.105   0.193  0.00  0.00    +0.000 A 
ATOM      9  C   UNL     1      -2.319  -3.923   1.068  0.00  0.00    +0.000 A 
ATOM     10  N   UNL     1      -2.869  -2.140   0.012  0.00  0.00    +0.000 NA
ATOM     11  N   UNL     1      -3.311  -3.214   0.530  0.00  0.00    +0.000 N 
ATOM     12  C   UNL     1      -1.141  -3.221   0.867  0.00  0.00    +0.000 A 
ATOM     13  H   UNL     1      -4.301  -3.497   0.532  0.00  0.00    +0.000 HD
ENDBRANCH   2   8
BRANCH   4  14
ATOM     14  C   UNL     1       2.339   0.879   0.716  0.00  0.00    +0.000 C 
ATOM     15  O   UNL     1       2.199   1.096   1.925  0.00  0.00    +0.000 OA
ATOM     16  OXT UNL     1       3.538   1.102   0.119  0.00  0.00    +0.000 OA
ENDBRANCH   4  14
BRANCH   5  17
ATOM     17  C   UNL     1      -1.672   1.571  -0.730  0.00  0.00    +0.000 C 
BRANCH  17  18
ATOM     18  N   UNL     1      -2.232   0.878  -1.963  0.00  0.00    +0.000 N 
ATOM     19  C   UNL     1      -3.294   0.770  -2.884  0.00  0.00    +0.000 C 
ATOM     20  C   UNL     1      -4.701   0.501  -2.414  0.00  0.00    +0.000 C 
ATOM     21  O   UNL     1      -3.067   0.888  -4.090  0.00  0.00    +0.000 OA
ATOM     22  H   UNL     1      -1.273   1.000  -2.317  0.00  0.00    +0.000 HD
ENDBRANCH  17  18
BRANCH  17  23
ATOM     23  C   UNL     1      -3.012   2.176   0.040  0.00  0.00    +0.000 C 
BRANCH  23  24
ATOM     24  C   UNL     1      -2.081   3.412  -0.147  0.00  0.00    +0.000 C 
ATOM     25  C   UNL     1      -2.717   4.619   0.564  0.00  0.00    +0.000 C 
ATOM     26  C   UNL     1      -1.893   3.770  -1.637  0.00  0.00    +0.000 C 
ENDBRANCH  23  24
ENDBRANCH  17  23
ENDBRANCH   5  17
TORSDOF 6
ENDMDL
MODEL        4
REMARK  Name = BDB5195
REMARK  11 active torsions:
REMARK  status: ('A' for Active; 'I' for Inactive)
REMARK    1  A    between atoms: C_2  and  C_18
REMARK    2  A    between atoms: CA_4  and  C_5
REMARK    3  A    between atoms: C_8  and  C_9
REMARK    4  A    between atoms: C_9  and  C_10
REMARK    5  A    between atoms: C_9  and  N_14
REMARK    6  A    between atoms: C_10  and  C_11
REMARK    7  A    between atoms: C_11  and  C_12
REMARK    8  A    between atoms: C_11  and  C_13
REMARK    9  A    between atoms: C_15  and  C_16
REMARK   10  A    between atoms: C_18  and  O_21
REMARK   11  A    between atoms: C_20  and  O_21
REMARK                            x       y       z     vdW  Elec       q    Type
REMARK                         _______ _______ _______ _____ _____    ______ ____
ROOT
ATOM      1  C   UNL     1       0.671  -0.995   0.428  0.00  0.00    +0.000 C 
ATOM      2  C   UNL     1      -0.661  -0.994  -0.276  0.00  0.00    +0.000 C 
ATOM      3  N   UNL     1      -0.004   1.279  -0.064  0.00  0.00    +0.000 N 
ATOM      4  CA  UNL     1       1.183   0.362  -0.091  0.00  0.00    +0.000 C 
ATOM      5  C   UNL     1      -1.156   0.371   0.183  0.00  0.00    +0.000 C 
ATOM      6  H1  UNL     1       0.087   1.955   0.708  0.00  0.00    +0.000 HD
ATOM      7  H2  UNL     1      -0.112   1.748  -0.974  0.00  0.00    +0.000 HD
ENDROOT
BRANCH   4   8
ATOM      8  C   UNL     1       2.339   0.879   0.716  0.00  0.00    +0.000 C 
ATOM      9  O   UNL     1       2.199   1.096   1.925  0.00  0.00    +0.000 OA
ATOM     10  OXT UNL     1       3.538   1.102   0.119  0.00  0.00    +0.000 OA
ENDBRANCH   4   8
BRANCH   2  11
ATOM     11  C   UNL     1      -1.563  -2.101   0.185  0.00  0.00    +0.000 C 
ATOM     12  O   UNL     1      -2.038  -2.893  -0.638  0.00  0.00    +0.000 OA
BRANCH  11  14
ATOM     13  C   UNL     1      -2.731  -3.351   1.734  0.00  0.00    +0.000 C 
ATOM     14  O   UNL     1      -1.861  -2.234   1.538  0.00  0.00    +0.000 OA
ENDBRANCH  11  14
ENDBRANCH   2  11
BRANCH   5  15
ATOM     15  C   UNL     1      -1.672   1.571  -0.730  0.00  0.00    +0.000 C 
BRANCH  15  16
ATOM     16  N   UNL     1      -2.232   0.878  -1.963  0.00  0.00    +0.000 N 
ATOM     17  C   UNL     1      -3.294   0.770  -2.884  0.00  0.00    +0.000 C 
ATOM     18  C   UNL     1      -4.701   0.501  -2.414  0.00  0.00    +0.000 C 
ATOM     19  O   UNL     1      -3.067   0.888  -4.090  0.00  0.00    +0.000 OA
ATOM     20  H   UNL     1      -1.273   1.000  -2.317  0.00  0.00    +0.000 HD
ENDBRANCH  15  16
BRANCH  15  21
ATOM     21  C   UNL     1      -3.012   2.176   0.040  0.00  0.00    +0.000 C 
BRANCH  21  22
ATOM     22  C   UNL     1      -2.081   3.412  -0.147  0.00  0.00    +0.000 C 
ATOM     23  C   UNL     1      -2.717   4.619   0.564  0.00  0.00    +0.000 C 
ATOM     24  C   UNL     1      -1.893   3.770  -1.637  0.00  0.00    +0.000 C 
ENDBRANCH  21  22
ENDBRANCH  15  21
ENDBRANCH   5  15
TORSDOF 7
ENDMDL
MODEL        5
REMARK  Name = BDB5198
REMARK  9 active torsions:
REMARK  status: ('A' for Active; 'I' for Inactive)
REMARK    1  A    between atoms: C_2  and  C_18
REMARK    2  A    between atoms: CA_4  and  C_5
REMARK    3  A    between atoms: C_8  and  C_9
REMARK    4  A    between atoms: C_9  and  C_10
REMARK    5  A    between atoms: C_9  and  N_14
REMARK    6  A    between atoms: C_10  and  C_11
REMARK    7  A    between atoms: C_11  and  C_12
REMARK    8  A    between atoms: C_11  and  C_13
REMARK    9  A    between atoms: C_15  and  C_16
REMARK                            x       y       z     vdW  Elec       q    Type
REMARK                         _______ _______ _______ _____ _____    ______ ____
ROOT
ATOM      1  C   UNL     1       0.671  -0.995   0.428  0.00  0.00    +0.000 C 
ATOM      2  C   UNL     1      -0.661  -0.994  -0.276  0.00  0.00    +0.000 C 
ATOM      3  N   UNL     1      -0.004   1.279  -0.064  0.00  0.00    +0.000 N 
ATOM      4  CA  UNL     1       1.183   0.362  -0.091  0.00  0.00    +0.000 C 
ATOM      5  C   UNL     1      -1.156   0.371   0.183  0.00  0.00    +0.000 C 
ATOM      6  H1  UNL     1       0.087   1.955   0.708  0.00  0.00    +0.000 HD
ATOM      7  H2  UNL     1      -0.112   1.748  -0.974  0.00  0.00    +0.000 HD
ENDROOT
BRANCH   2   8
ATOM      8  C   UNL     1      -1.564  -2.102   0.191  0.00  0.00    +0.000 A 
ATOM      9  C   UNL     1      -3.394  -3.535   0.761  0.00  0.00    +0.000 A 
ATOM     10  C   UNL     1      -2.133  -4.056   1.048  0.00  0.00    +0.000 A 
ATOM     11  N   UNL     1      -1.133  -3.236   0.720  0.00  0.00    +0.000 NA
ATOM     12  S   UNL     1      -3.223  -2.011   0.082  0.00  0.00    +0.000 S 
ENDBRANCH   2   8
BRANCH   4  13
ATOM     13  C   UNL     1       2.339   0.879   0.716  0.00  0.00    +0.000 C 
ATOM     14  O   UNL     1       2.199   1.096   1.925  0.00  0.00    +0.000 OA
ATOM     15  OXT UNL     1       3.538   1.102   0.119  0.00  0.00    +0.000 OA
ENDBRANCH   4  13
BRANCH   5  16
ATOM     16  C   UNL     1      -1.672   1.571  -0.730  0.00  0.00    +0.000 C 
BRANCH  16  17
ATOM     17  N   UNL     1      -2.232   0.878  -1.963  0.00  0.00    +0.000 N 
ATOM     18  C   UNL     1      -3.294   0.770  -2.884  0.00  0.00    +0.000 C 
ATOM     19  C   UNL     1      -4.701   0.501  -2.414  0.00  0.00    +0.000 C 
ATOM     20  O   UNL     1      -3.067   0.888  -4.090  0.00  0.00    +0.000 OA
ATOM     21  H   UNL     1      -1.273   1.000  -2.317  0.00  0.00    +0.000 HD
ENDBRANCH  16  17
BRANCH  16  22
ATOM     22  C   UNL     1      -3.012   2.176   0.040  0.00  0.00    +0.000 C 
BRANCH  22  23
ATOM     23  C   UNL     1      -2.081   3.412  -0.147  0.00  0.00    +0.000 C 
ATOM     24  C   UNL     1      -2.717   4.619   0.564  0.00  0.00    +0.000 C 
ATOM     25  C   UNL     1      -1.893   3.770  -1.637  0.00  0.00    +0.000 C 
ENDBRANCH  22  23
ENDBRANCH  16  22
ENDBRANCH   5  16
TORSDOF 6
ENDMDL
MODEL        6
REMARK  Name = BDB5199
REMARK  9 active torsions:
REMARK  status: ('A' for Active; 'I' for Inactive)
REMARK    1  A    between atoms: C_2  and  C_18
REMARK    2  A    between atoms: CA_4  and  C_5
REMARK    3  A    between atoms: C_8  and  C_9
REMARK    4  A    between atoms: C_9  and  C_10
REMARK    5  A    between atoms: C_9  and  N_14
REMARK    6  A    between atoms: C_10  and  C_11
REMARK    7  A    between atoms: C_11  and  C_12
REMARK    8  A    between atoms: C_11  and  C_13
REMARK    9  A    between atoms: C_15  and  C_16
REMARK                            x       y       z     vdW  Elec       q    Type
REMARK                         _______ _______ _______ _____ _____    ______ ____
ROOT
ATOM      1  C   UNL     1       0.671  -0.995   0.428  0.00  0.00    +0.000 C 
ATOM      2  C   UNL     1      -0.661  -0.994  -0.276  0.00  0.00    +0.000 C 
ATOM      3  N   UNL     1      -0.004   1.279  -0.064  0.00  0.00    +0.000 N 
ATOM      4  CA  UNL     1       1.183   0.362  -0.091  0.00  0.00    +0.000 C 
ATOM      5  C   UNL     1      -1.156   0.371   0.183  0.00  0.00    +0.000 C 
ATOM      6  H1  UNL     1       0.087   1.955   0.708  0.00  0.00    +0.000 HD
ATOM      7  H2  UNL     1      -0.112   1.748  -0.974  0.00  0.00    +0.000 HD
ENDROOT
BRANCH   2   8
ATOM      8  C   UNL     1      -1.564  -2.102   0.191  0.00  0.00    +0.000 A 
ATOM      9  C   UNL     1      -3.318  -3.229   0.561  0.00  0.00    +0.000 A 
ATOM     10  C   UNL     1      -2.219  -3.917   1.064  0.00  0.00    +0.000 A 
ATOM     11  N   UNL     1      -2.871  -2.102   0.023  0.00  0.00    +0.000 NA
ATOM     12  N   UNL     1      -1.142  -3.183   0.815  0.00  0.00    +0.000 N 
ATOM     13  H   UNL     1      -0.169  -3.412   1.061  0.00  0.00    +0.000 HD
ENDBRANCH   2   8
BRANCH   4  14
ATOM     14  C   UNL     1       2.339   0.879   0.716  0.00  0.00    +0.000 C 
ATOM     15  O   UNL     1       2.199   1.096   1.925  0.00  0.00    +0.000 OA
ATOM     16  OXT UNL     1       3.538   1.102   0.119  0.00  0.00    +0.000 OA
ENDBRANCH   4  14
BRANCH   5  17
ATOM     17  C   UNL     1      -1.672   1.571  -0.730  0.00  0.00    +0.000 C 
BRANCH  17  18
ATOM     18  N   UNL     1      -2.232   0.878  -1.963  0.00  0.00    +0.000 N 
ATOM     19  C   UNL     1      -3.294   0.770  -2.884  0.00  0.00    +0.000 C 
ATOM     20  C   UNL     1      -4.701   0.501  -2.414  0.00  0.00    +0.000 C 
ATOM     21  O   UNL     1      -3.067   0.888  -4.090  0.00  0.00    +0.000 OA
ATOM     22  H   UNL     1      -1.273   1.000  -2.317  0.00  0.00    +0.000 HD
ENDBRANCH  17  18
BRANCH  17  23
ATOM     23  C   UNL     1      -3.012   2.176   0.040  0.00  0.00    +0.000 C 
BRANCH  23  24
ATOM     24  C   UNL     1      -2.081   3.412  -0.147  0.00  0.00    +0.000 C 
ATOM     25  C   UNL     1      -2.717   4.619   0.564  0.00  0.00    +0.000 C 
ATOM     26  C   UNL     1      -1.893   3.770  -1.637  0.00  0.00    +0.000 C 
ENDBRANCH  23  24
ENDBRANCH  17  23
ENDBRANCH   5  17
TORSDOF 6
ENDMDL
MODEL        7
REMARK  Name = BDB5003
REMARK  11 active torsions:
REMARK  status: ('A' for Active; 'I' for Inactive)
REMARK    1  A    between atoms: C_2  and  O_15
REMARK    2  A    between atoms: C_3  and  N_11
REMARK    3  A    between atoms: C_4  and  N_10
REMARK    4  A    between atoms: C_6  and  C_7
REMARK    5  A    between atoms: C_12  and  C_13
REMARK    6  A    between atoms: O_15  and  C_16
REMARK    7  A    between atoms: C_16  and  C_17
REMARK    8  A    between atoms: C_16  and  C_25
REMARK    9  A    between atoms: C_17  and  C_18
REMARK   10  A    between atoms: C_18  and  C_19
REMARK   11  A    between atoms: C_25  and  C_26
REMARK                            x       y       z     vdW  Elec       q    Type
REMARK                         _______ _______ _______ _____ _____    ______ ____
ROOT
ATOM      1  C   UNL     1       1.066  -0.875  -0.325  0.00  0.00    +0.000 C 
ATOM      2  C   UNL     1       1.141   0.625  -0.287  0.00  0.00    +0.000 C 
ATOM      3  C   UNL     1      -0.152   1.232   0.445  0.00  0.00    +0.000 C 
ATOM      4  C   UNL     1      -1.495   0.558   0.036  0.00  0.00    +0.000 C 
ATOM      5  C   UNL     1      -1.418  -0.937   0.332  0.00  0.00    +0.000 C 
ATOM      6  C   UNL     1      -0.061  -1.577  -0.098  0.00  0.00    +0.000 C 
ENDROOT
BRANCH   3   7
ATOM      7  N   UNL     1      -0.111   1.256   1.983  0.00  0.00    +0.000 N 
ATOM      8  C   UNL     1       0.020   0.194   2.999  0.00  0.00    +0.000 C 
ATOM      9  C   UNL     1       0.598  -1.180   2.817  0.00  0.00    +0.000 C 
ATOM     10  O   UNL     1      -0.295   0.503   4.154  0.00  0.00    +0.000 OA
ATOM     11  H   UNL     1      -0.292   2.151   2.369  0.00  0.00    +0.000 HD
ENDBRANCH   3   7
BRANCH   4  12
ATOM     12  N   UNL     1      -1.827   0.688  -1.313  0.00  0.00    +0.000 N 
ATOM     13  H   UNL     1      -1.192   0.175  -1.828  0.00  0.00    +0.000 HD
ATOM     14  H   UNL     1      -1.818   1.684  -1.567  0.00  0.00    +0.000 HD
ATOM     15  H   UNL     1      -2.755   0.299  -1.475  0.00  0.00    +0.000 HD
ENDBRANCH   4  12
BRANCH   6  16
ATOM     16  C   UNL     1       0.041  -3.027  -0.138  0.00  0.00    +0.000 C 
ATOM     17  O   UNL     1       1.139  -3.559  -0.342  0.00  0.00    +0.000 OA
ATOM     18  O   UNL     1      -1.050  -3.792   0.101  0.00  0.00    +0.000 OA
ENDBRANCH   6  16
BRANCH   2  19
ATOM     19  O   UNL     1       1.539   1.114  -1.698  0.00  0.00    +0.000 OA
BRANCH  19  20
ATOM     20  C   UNL     1       0.860   0.615  -2.899  0.00  0.00    +0.000 C 
BRANCH  20  21
ATOM     21  C   UNL     1      -0.134   1.668  -3.491  0.00  0.00    +0.000 C 
ATOM     22  C   UNL     1       0.583   2.981  -3.841  0.00  0.00    +0.000 C 
ENDBRANCH  20  21
BRANCH  20  23
ATOM     23  C   UNL     1       1.819   0.313  -4.042  0.00  0.00    +0.000 C 
BRANCH  23  24
ATOM     24  C   UNL     1       0.909  -0.399  -5.072  0.00  0.00    +0.000 C 
BRANCH  24  25
ATOM     25  C   UNL     1       1.323  -0.139  -6.472  0.00  0.00    +0.000 A 
ATOM     26  C   UNL     1       0.898  -0.446  -8.822  0.00  0.00    +0.000 A 
ATOM     27  C   UNL     1       1.983   0.383  -9.115  0.00  0.00    +0.000 A 
ATOM     28  C   UNL     1       2.726   0.942  -8.090  0.00  0.00    +0.000 A 
ATOM     29  C   UNL     1       2.385   0.682  -6.759  0.00  0.00    +0.000 A 
ATOM     30  C   UNL     1       0.568  -0.711  -7.510  0.00  0.00    +0.000 A 
ENDBRANCH  24  25
ENDBRANCH  23  24
ENDBRANCH  20  23
ENDBRANCH  19  20
ENDBRANCH   2  19
TORSDOF 9
ENDMDL
MODEL        8
REMARK  Name = BDB5013
REMARK  10 active torsions:
REMARK  status: ('A' for Active; 'I' for Inactive)
REMARK    1  A    between atoms: C_2  and  O_18
REMARK    2  A    between atoms: C_3  and  N_10
REMARK    3  A    between atoms: C_4  and  N_14
REMARK    4  A    between atoms: C_6  and  C_7
REMARK    5  A    between atoms: C_11  and  C_12
REMARK    6  A    between atoms: O_18  and  C_19
REMARK    7  A    between atoms: C_19  and  C_20
REMARK    8  A    between atoms: C_19  and  C_22
REMARK    9  A    between atoms: C_20  and  C_21
REMARK   10  A    between atoms: C_22  and  C_23
REMARK                            x       y       z     vdW  Elec       q    Type
REMARK                         _______ _______ _______ _____ _____    ______ ____
ROOT
ATOM      1  C   UNL     1       1.373  -0.787   0.243  0.00  0.00    +0.000 C 
ATOM      2  C   UNL     1       1.362   0.737   0.146  0.00  0.00    +0.000 C 
ATOM      3  C   UNL     1      -0.061   1.266   0.396  0.00  0.00    +0.000 C 
ATOM      4  C   UNL     1      -1.195   0.373  -0.317  0.00  0.00    +0.000 C 
ATOM      5  C   UNL     1      -1.140  -1.002   0.257  0.00  0.00    +0.000 C 
ATOM      6  C   UNL     1       0.262  -1.561   0.258  0.00  0.00    +0.000 C 
ENDROOT
BRANCH   4   7
ATOM      7  N   UNL     1      -1.365   0.226  -1.859  0.00  0.00    +0.000 N 
ATOM      8  C   UNL     1      -0.610  -0.579  -2.898  0.00  0.00    +0.000 C 
ATOM      9  N   UNL     1      -1.078  -0.558  -4.087  0.00  0.00    +0.000 N 
ATOM     10  N   UNL     1       0.580  -1.371  -2.738  0.00  0.00    +0.000 N 
ATOM     11  H   UNL     1      -2.154   0.761  -2.238  0.00  0.00    +0.000 HD
ATOM     12  H   UNL     1      -1.895  -0.043  -4.283  0.00  0.00    +0.000 HD
ATOM     13  H   UNL     1      -0.616  -1.073  -4.799  0.00  0.00    +0.000 HD
ATOM     14  H   UNL     1       1.059  -1.412  -1.904  0.00  0.00    +0.000 HD
ATOM     15  H   UNL     1       0.990  -1.828  -3.559  0.00  0.00    +0.000 HD
ENDBRANCH   4   7
BRANCH   3  16
ATOM     16  N   UNL     1      -0.361   1.457   1.903  0.00  0.00    +0.000 N 
ATOM     17  C   UNL     1      -0.232   0.576   3.097  0.00  0.00    +0.000 C 
ATOM     18  C   UNL     1       0.239  -0.848   3.165  0.00  0.00    +0.000 C 
ATOM     19  O   UNL     1      -0.534   1.087   4.181  0.00  0.00    +0.000 OA
ATOM     20  H   UNL     1      -0.653   2.377   2.131  0.00  0.00    +0.000 HD
ENDBRANCH   3  16
BRANCH   6  21
ATOM     21  C   UNL     1       0.392  -3.007   0.336  0.00  0.00    +0.000 C 
ATOM     22  O   UNL     1       1.509  -3.530   0.370  0.00  0.00    +0.000 OA
ATOM     23  O   UNL     1      -0.727  -3.779   0.362  0.00  0.00    +0.000 OA
ENDBRANCH   6  21
BRANCH   2  24
ATOM     24  O   UNL     1       2.039   1.222  -1.118  0.00  0.00    +0.000 OA
BRANCH  24  25
ATOM     25  C   UNL     1       1.296   1.491  -2.340  0.00  0.00    +0.000 C 
BRANCH  25  26
ATOM     26  C   UNL     1       0.751   2.981  -2.305  0.00  0.00    +0.000 C 
ATOM     27  C   UNL     1      -0.259   3.331  -3.430  0.00  0.00    +0.000 C 
ENDBRANCH  25  26
BRANCH  25  28
ATOM     28  C   UNL     1       2.306   1.278  -3.535  0.00  0.00    +0.000 C 
ATOM     29  C   UNL     1       1.642   1.187  -4.938  0.00  0.00    +0.000 C 
ENDBRANCH  25  28
ENDBRANCH  24  25
ENDBRANCH   2  24
TORSDOF 7
ENDMDL
MODEL        9
REMARK  Name = BDB4942
REMARK  9 active torsions:
REMARK  status: ('A' for Active; 'I' for Inactive)
REMARK    1  A    between atoms: C_1  and  C_6
REMARK    2  A    between atoms: C_2  and  N_13
REMARK    3  A    between atoms: C_3  and  N_17
REMARK    4  A    between atoms: C_9  and  C_11
REMARK    5  A    between atoms: N_12  and  C_21
REMARK    6  A    between atoms: N_12  and  C_23
REMARK    7  A    between atoms: C_14  and  C_15
REMARK    8  A    between atoms: C_21  and  C_22
REMARK    9  A    between atoms: C_23  and  C_24
REMARK                            x       y       z     vdW  Elec       q    Type
REMARK                         _______ _______ _______ _____ _____    ______ ____
ROOT
ATOM      1  C   UNL     1       1.181  -0.703  -0.099  0.00  0.00    +0.000 C 
ATOM      2  C   UNL     1      -1.173   0.691  -0.403  0.00  0.00    +0.000 C 
ATOM      3  C   UNL     1      -1.268  -0.715   0.163  0.00  0.00    +0.000 C 
ATOM      4  C   UNL     1       0.039  -1.395  -0.026  0.00  0.00    +0.000 C 
ATOM      5  O   UNL     1       1.234   0.713   0.007  0.00  0.00    +0.000 OA
ATOM      6  C   UNL     1      -0.021   1.352   0.330  0.00  0.00    +0.000 C 
ENDROOT
BRANCH   3   7
ATOM      7  N   UNL     1      -2.326  -1.455  -0.498  0.00  0.00    +0.000 N 
ATOM      8  C   UNL     1      -2.333  -1.701  -1.890  0.00  0.00    +0.000 C 
ATOM      9  N   UNL     1      -3.293  -2.358  -2.400  0.00  0.00    +0.000 N 
ATOM     10  N   UNL     1      -1.304  -1.236  -2.720  0.00  0.00    +0.000 N 
ATOM     11  H   UNL     1      -3.104  -1.817   0.071  0.00  0.00    +0.000 HD
ATOM     12  H   UNL     1      -4.060  -2.709  -1.809  0.00  0.00    +0.000 HD
ATOM     13  H   UNL     1      -3.303  -2.540  -3.414  0.00  0.00    +0.000 HD
ATOM     14  H   UNL     1      -0.528  -0.704  -2.300  0.00  0.00    +0.000 HD
ATOM     15  H   UNL     1      -1.320  -1.421  -3.733  0.00  0.00    +0.000 HD
ENDBRANCH   3   7
BRANCH   2  16
ATOM     16  N   UNL     1      -2.424   1.401  -0.106  0.00  0.00    +0.000 N 
ATOM     17  C   UNL     1      -2.993   1.622   1.196  0.00  0.00    +0.000 C 
ATOM     18  C   UNL     1      -2.353   1.133   2.481  0.00  0.00    +0.000 C 
ATOM     19  O   UNL     1      -4.059   2.243   1.272  0.00  0.00    +0.000 OA
ATOM     20  H   UNL     1      -2.946   1.779  -0.910  0.00  0.00    +0.000 HD
ENDBRANCH   2  16
BRANCH   6  21
ATOM     21  C   UNL     1       0.070   2.836  -0.044  0.00  0.00    +0.000 C 
ATOM     22  O   UNL     1      -0.721   3.619   0.496  0.00  0.00    +0.000 OA
ATOM     23  N   UNL     1       0.994   3.369  -0.994  0.00  0.00    +0.000 N 
BRANCH  23  24
ATOM     24  C   UNL     1       0.997   4.792  -1.218  0.00  0.00    +0.000 C 
ATOM     25  C   UNL     1       2.421   5.282  -1.559  0.00  0.00    +0.000 C 
ENDBRANCH  23  24
BRANCH  23  26
ATOM     26  C   UNL     1       1.880   2.533  -1.773  0.00  0.00    +0.000 C 
ATOM     27  C   UNL     1       1.202   2.147  -3.106  0.00  0.00    +0.000 C 
ENDBRANCH  23  26
ENDBRANCH   6  21
BRANCH   1  28
ATOM     28  C   UNL     1       2.428  -1.433  -0.336  0.00  0.00    +0.000 C 
ATOM     29  O   UNL     1       3.497  -0.818  -0.424  0.00  0.00    +0.000 OA
ATOM     30  O   UNL     1       2.410  -2.786  -0.458  0.00  0.00    +0.000 OA
ENDBRANCH   1  28
TORSDOF 6
ENDMDL
MODEL       10
REMARK  Name = BDB4997
REMARK  15 active torsions:
REMARK  status: ('A' for Active; 'I' for Inactive)
REMARK    1  A    between atoms: C_2  and  O_15
REMARK    2  A    between atoms: C_3  and  N_11
REMARK    3  A    between atoms: C_4  and  N_10
REMARK    4  A    between atoms: C_6  and  C_7
REMARK    5  A    between atoms: C_12  and  C_13
REMARK    6  A    between atoms: O_15  and  C_16
REMARK    7  A    between atoms: C_16  and  C_17
REMARK    8  A    between atoms: C_16  and  C_19
REMARK    9  A    between atoms: C_17  and  C_18
REMARK   10  A    between atoms: C_19  and  C_20
REMARK   11  A    between atoms: C_20  and  C_21
REMARK   12  A    between atoms: C_21  and  C_22
REMARK   13  A    between atoms: C_22  and  C_23
REMARK   14  A    between atoms: C_23  and  C_24
REMARK   15  A    between atoms: C_24  and  C_25
REMARK                            x       y       z     vdW  Elec       q    Type
REMARK                         _______ _______ _______ _____ _____    ______ ____
ROOT
ATOM      1  C   UNL     1       1.039  -0.916  -0.325  0.00  0.00    +0.000 C 
ATOM      2  C   UNL     1       1.143   0.584  -0.283  0.00  0.00    +0.000 C 
ATOM      3  C   UNL     1      -0.154   1.233   0.400  0.00  0.00    +0.000 C 
ATOM      4  C   UNL     1      -1.509   0.541   0.018  0.00  0.00    +0.000 C 
ATOM      5  C   UNL     1      -1.419  -0.942   0.389  0.00  0.00    +0.000 C 
ATOM      6  C   UNL     1      -0.094  -1.604  -0.071  0.00  0.00    +0.000 C 
ENDROOT
BRANCH   3   7
ATOM      7  N   UNL     1      -0.137   1.303   1.933  0.00  0.00    +0.000 N 
ATOM      8  C   UNL     1       0.120   0.295   2.973  0.00  0.00    +0.000 C 
ATOM      9  C   UNL     1       0.778  -1.042   2.801  0.00  0.00    +0.000 C 
ATOM     10  O   UNL     1      -0.176   0.615   4.130  0.00  0.00    +0.000 OA
ATOM     11  H   UNL     1      -0.404   2.189   2.295  0.00  0.00    +0.000 HD
ENDBRANCH   3   7
BRANCH   4  12
ATOM     12  N   UNL     1      -1.896   0.617  -1.349  0.00  0.00    +0.000 N 
ATOM     13  H   UNL     1      -1.267   0.111  -1.895  0.00  0.00    +0.000 HD
ATOM     14  H   UNL     1      -1.937   1.602  -1.635  0.00  0.00    +0.000 HD
ATOM     15  H   UNL     1      -2.822   0.194  -1.456  0.00  0.00    +0.000 HD
ENDBRANCH   4  12
BRANCH   6  16
ATOM     16  C   UNL     1      -0.008  -3.056  -0.137  0.00  0.00    +0.000 C 
ATOM     17  O   UNL     1       1.067  -3.597  -0.408  0.00  0.00    +0.000 OA
ATOM     18  O   UNL     1      -1.102  -3.812   0.129  0.00  0.00    +0.000 OA
ENDBRANCH   6  16
BRANCH   2  19
ATOM     19  O   UNL     1       1.598   1.038  -1.670  0.00  0.00    +0.000 OA
BRANCH  19  20
ATOM     20  C   UNL     1       0.877   0.636  -2.866  0.00  0.00    +0.000 C 
BRANCH  20  21
ATOM     21  C   UNL     1      -0.041   1.786  -3.372  0.00  0.00    +0.000 C 
ATOM     22  C   UNL     1       0.789   3.044  -3.692  0.00  0.00    +0.000 C 
ENDBRANCH  20  21
BRANCH  20  23
ATOM     23  C   UNL     1       1.825   0.310  -4.032  0.00  0.00    +0.000 C 
BRANCH  23  24
ATOM     24  C   UNL     1       0.891  -0.201  -5.155  0.00  0.00    +0.000 C 
BRANCH  24  25
ATOM     25  C   UNL     1       1.592  -0.393  -6.503  0.00  0.00    +0.000 C 
BRANCH  25  26
ATOM     26  C   UNL     1       0.503  -0.868  -7.489  0.00  0.00    +0.000 C 
BRANCH  26  27
ATOM     27  C   UNL     1       1.045  -0.964  -8.922  0.00  0.00    +0.000 C 
BRANCH  27  28
ATOM     28  C   UNL     1      -0.100  -1.428  -9.845  0.00  0.00    +0.000 C 
ATOM     29  C   UNL     1       0.394  -1.484 -11.301  0.00  0.00    +0.000 C 
ENDBRANCH  27  28
ENDBRANCH  26  27
ENDBRANCH  25  26
ENDBRANCH  24  25
ENDBRANCH  23  24
ENDBRANCH  20  23
ENDBRANCH  19  20
ENDBRANCH   2  19
TORSDOF 12
ENDMDL
MODEL       11
REMARK  Name = BDB4995
REMARK  10 active torsions:
REMARK  status: ('A' for Active; 'I' for Inactive)
REMARK    1  A    between atoms: C_2  and  O_15
REMARK    2  A    between atoms: C_3  and  N_11
REMARK    3  A    between atoms: C_4  and  N_10
REMARK    4  A    between atoms: C_6  and  C_7
REMARK    5  A    between atoms: C_12  and  C_13
REMARK    6  A    between atoms: O_15  and  C_16
REMARK    7  A    between atoms: C_16  and  C_17
REMARK    8  A    between atoms: C_16  and  C_20
REMARK    9  A    between atoms: C_17  and  C_18
REMARK   10  A    between atoms: C_20  and  C_21
REMARK                            x       y       z     vdW  Elec       q    Type
REMARK                         _______ _______ _______ _____ _____    ______ ____
ROOT
ATOM      1  C   UNL     1       1.040  -0.909  -0.337  0.00  0.00    +0.000 C 
ATOM      2  C   UNL     1       1.129   0.589  -0.301  0.00  0.00    +0.000 C 
ATOM      3  C   UNL     1      -0.161   1.231   0.394  0.00  0.00    +0.000 C 
ATOM      4  C   UNL     1      -1.512   0.541   0.012  0.00  0.00    +0.000 C 
ATOM      5  C   UNL     1      -1.420  -0.945   0.373  0.00  0.00    +0.000 C 
ATOM      6  C   UNL     1      -0.089  -1.603  -0.082  0.00  0.00    +0.000 C 
ENDROOT
BRANCH   3   7
ATOM      7  N   UNL     1      -0.130   1.302   1.927  0.00  0.00    +0.000 N 
ATOM      8  C   UNL     1       0.114   0.291   2.966  0.00  0.00    +0.000 C 
ATOM      9  C   UNL     1       0.758  -1.054   2.794  0.00  0.00    +0.000 C 
ATOM     10  O   UNL     1      -0.177   0.615   4.124  0.00  0.00    +0.000 OA
ATOM     11  H   UNL     1      -0.379   2.192   2.290  0.00  0.00    +0.000 HD
ENDBRANCH   3   7
BRANCH   4  12
ATOM     12  N   UNL     1      -1.891   0.628  -1.356  0.00  0.00    +0.000 N 
ATOM     13  H   UNL     1      -1.265   0.120  -1.897  0.00  0.00    +0.000 HD
ATOM     14  H   UNL     1      -1.921   1.615  -1.640  0.00  0.00    +0.000 HD
ATOM     15  H   UNL     1      -2.820   0.212  -1.470  0.00  0.00    +0.000 HD
ENDBRANCH   4  12
BRANCH   6  16
ATOM     16  C   UNL     1       0.007  -3.055  -0.139  0.00  0.00    +0.000 C 
ATOM     17  O   UNL     1       1.087  -3.589  -0.403  0.00  0.00    +0.000 OA
ATOM     18  O   UNL     1      -1.082  -3.816   0.130  0.00  0.00    +0.000 OA
ENDBRANCH   6  16
BRANCH   2  19
ATOM     19  O   UNL     1       1.551   1.050  -1.692  0.00  0.00    +0.000 OA
BRANCH  19  20
ATOM     20  C   UNL     1       0.863   0.594  -2.894  0.00  0.00    +0.000 C 
BRANCH  20  21
ATOM     21  C   UNL     1      -0.050   1.711  -3.471  0.00  0.00    +0.000 C 
ATOM     22  C   UNL     1       0.778   2.964  -3.806  0.00  0.00    +0.000 C 
ENDBRANCH  20  21
BRANCH  20  23
ATOM     23  C   UNL     1       1.875   0.248  -3.996  0.00  0.00    +0.000 C 
BRANCH  23  24
ATOM     24  C   UNL     1       1.092  -0.265  -5.182  0.00  0.00    +0.000 C 
ATOM     25  C   UNL     1       1.669  -0.399  -6.373  0.00  0.00    +0.000 C 
ENDBRANCH  23  24
ENDBRANCH  20  23
ENDBRANCH  19  20
ENDBRANCH   2  19
TORSDOF 8
ENDMDL
MODEL       12
REMARK  Name = BDB5025
REMARK  13 active torsions:
REMARK  status: ('A' for Active; 'I' for Inactive)
REMARK    1  A    between atoms: C_2  and  N_17
REMARK    2  A    between atoms: C_4  and  C_5
REMARK    3  A    between atoms: C_5  and  O_7
REMARK    4  A    between atoms: O_7  and  C_8
REMARK    5  A    between atoms: C_8  and  C_9
REMARK    6  A    between atoms: C_10  and  O_11
REMARK    7  A    between atoms: O_11  and  C_12
REMARK    8  A    between atoms: C_12  and  C_13
REMARK    9  A    between atoms: C_12  and  C_15
REMARK   10  A    between atoms: C_13  and  C_14
REMARK   11  A    between atoms: C_15  and  C_16
REMARK   12  A    between atoms: C_18  and  C_19
REMARK   13  A    between atoms: C_21  and  N_22
REMARK                            x       y       z     vdW  Elec       q    Type
REMARK                         _______ _______ _______ _____ _____    ______ ____
ROOT
ATOM      1  C   UNL     1       1.249  -0.667  -0.017  0.00  0.00    +0.000 C 
ATOM      2  C   UNL     1      -1.227  -0.669   0.385  0.00  0.00    +0.000 C 
ATOM      3  C   UNL     1      -0.021   1.478   0.085  0.00  0.00    +0.000 C 
ATOM      4  C   UNL     1       1.257   0.665   0.070  0.00  0.00    +0.000 C 
ATOM      5  C   UNL     1      -0.024  -1.457  -0.138  0.00  0.00    +0.000 C 
ATOM      6  C   UNL     1      -1.244   0.656  -0.358  0.00  0.00    +0.000 C 
ENDROOT
BRANCH   2   7
ATOM      7  N   UNL     1      -2.447  -1.429   0.078  0.00  0.00    +0.000 N 
ATOM      8  C   UNL     1      -2.888  -1.844  -1.226  0.00  0.00    +0.000 C 
ATOM      9  C   UNL     1      -2.127  -1.540  -2.502  0.00  0.00    +0.000 C 
ATOM     10  O   UNL     1      -3.944  -2.481  -1.312  0.00  0.00    +0.000 OA
ATOM     11  H   UNL     1      -3.044  -1.691   0.876  0.00  0.00    +0.000 HD
ENDBRANCH   2   7
BRANCH   6  12
ATOM     12  N   UNL     1      -2.462   1.410  -0.029  0.00  0.00    +0.000 N 
ATOM     13  H   UNL     1      -2.487   1.585   0.986  0.00  0.00    +0.000 HD
ATOM     14  H   UNL     1      -3.287   0.854  -0.298  0.00  0.00    +0.000 HD
ATOM     15  H   UNL     1      -2.467   2.306  -0.536  0.00  0.00    +0.000 HD
ENDBRANCH   6  12
BRANCH   4  16
ATOM     16  C   UNL     1       2.536   1.361   0.196  0.00  0.00    +0.000 C 
ATOM     17  O   UNL     1       2.563   2.593   0.297  0.00  0.00    +0.000 OA
BRANCH  16  18
ATOM     18  O   UNL     1       3.721   0.631   0.201  0.00  0.00    +0.000 OA
BRANCH  18  19
ATOM     19  C   UNL     1       4.837   1.515   0.333  0.00  0.00    +0.000 C 
ATOM     20  C   UNL     1       6.139   0.693   0.337  0.00  0.00    +0.000 C 
ENDBRANCH  18  19
ENDBRANCH  16  18
ENDBRANCH   4  16
BRANCH   5  21
ATOM     21  O   UNL     1       0.094  -2.734   0.559  0.00  0.00    +0.000 OA
BRANCH  21  22
ATOM     22  C   UNL     1       0.544  -2.616   1.938  0.00  0.00    +0.000 C 
BRANCH  22  23
ATOM     23  C   UNL     1      -0.646  -2.418   2.922  0.00  0.00    +0.000 C 
ATOM     24  C   UNL     1      -1.641  -3.594   2.792  0.00  0.00    +0.000 C 
ENDBRANCH  22  23
BRANCH  22  25
ATOM     25  C   UNL     1       1.296  -3.908   2.327  0.00  0.00    +0.000 C 
ATOM     26  C   UNL     1       1.875  -3.776   3.752  0.00  0.00    +0.000 C 
ENDBRANCH  22  25
ENDBRANCH  21  22
ENDBRANCH   5  21
TORSDOF 9
ENDMDL
MODEL       13
REMARK  Name = BDB5023
REMARK  10 active torsions:
REMARK  status: ('A' for Active; 'I' for Inactive)
REMARK    1  A    between atoms: C_3  and  C_4
REMARK    2  A    between atoms: C_7  and  N_16
REMARK    3  A    between atoms: C_8  and  C_9
REMARK    4  A    between atoms: C_9  and  N_10
REMARK    5  A    between atoms: C_9  and  C_20
REMARK    6  A    between atoms: C_11  and  C_12
REMARK    7  A    between atoms: C_14  and  C_15
REMARK    8  A    between atoms: C_14  and  C_20
REMARK    9  A    between atoms: C_20  and  C_21
REMARK   10  A    between atoms: C_21  and  C_22
REMARK                            x       y       z     vdW  Elec       q    Type
REMARK                         _______ _______ _______ _____ _____    ______ ____
ROOT
ATOM      1  C   UNL     1       0.795  -1.069  -0.309  0.00  0.00    +0.000 C 
ATOM      2  C   UNL     1      -1.094   0.347   0.360  0.00  0.00    +0.000 C 
ATOM      3  C   UNL     1      -0.769  -1.078  -0.170  0.00  0.00    +0.000 C 
ATOM      4  C   UNL     1       1.182   0.371   0.074  0.00  0.00    +0.000 C 
ATOM      5  C   UNL     1      -0.026   1.170  -0.347  0.00  0.00    +0.000 C 
ENDROOT
BRANCH   4   6
ATOM      6  N   UNL     1       2.417   0.805  -0.549  0.00  0.00    +0.000 N 
ATOM      7  C   UNL     1       2.599   0.827  -1.951  0.00  0.00    +0.000 C 
ATOM      8  N   UNL     1       3.710   1.220  -2.426  0.00  0.00    +0.000 N 
ATOM      9  N   UNL     1       1.582   0.426  -2.827  0.00  0.00    +0.000 N 
ATOM     10  H   UNL     1       3.194   1.110   0.055  0.00  0.00    +0.000 HD
ATOM     11  H   UNL     1       4.471   1.520  -1.801  0.00  0.00    +0.000 HD
ATOM     12  H   UNL     1       3.848   1.239  -3.447  0.00  0.00    +0.000 HD
ATOM     13  H   UNL     1       0.684   0.108  -2.436  0.00  0.00    +0.000 HD
ATOM     14  H   UNL     1       1.727   0.446  -3.846  0.00  0.00    +0.000 HD
ENDBRANCH   4   6
BRANCH   3  15
ATOM     15  C   UNL     1      -1.323  -1.159  -1.566  0.00  0.00    +0.000 C 
ATOM     16  O   UNL     1      -0.988  -0.324  -2.413  0.00  0.00    +0.000 OA
ATOM     17  O   UNL     1      -2.191  -2.151  -1.895  0.00  0.00    +0.000 OA
ENDBRANCH   3  15
BRANCH   5  18
ATOM     18  C   UNL     1       0.039   2.643   0.191  0.00  0.00    +0.000 C 
BRANCH  18  19
ATOM     19  N   UNL     1       0.262   2.639   1.613  0.00  0.00    +0.000 N 
ATOM     20  C   UNL     1      -0.223   3.674   2.433  0.00  0.00    +0.000 C 
ATOM     21  C   UNL     1      -1.041   4.796   1.851  0.00  0.00    +0.000 C 
ATOM     22  O   UNL     1       0.015   3.655   3.643  0.00  0.00    +0.000 OA
ATOM     23  H   UNL     1       0.787   1.863   2.039  0.00  0.00    +0.000 HD
ENDBRANCH  18  19
BRANCH  18  24
ATOM     24  C   UNL     1       1.036   3.610  -0.587  0.00  0.00    +0.000 C 
BRANCH  24  25
ATOM     25  C   UNL     1       0.667   3.609  -2.085  0.00  0.00    +0.000 C 
ATOM     26  C   UNL     1      -0.794   4.069  -2.263  0.00  0.00    +0.000 C 
ENDBRANCH  24  25
BRANCH  24  27
ATOM     27  C   UNL     1       2.557   3.292  -0.432  0.00  0.00    +0.000 C 
ATOM     28  C   UNL     1       3.042   3.504   1.018  0.00  0.00    +0.000 C 
ENDBRANCH  24  27
ENDBRANCH  18  24
ENDBRANCH   5  18
TORSDOF 7
ENDMDL
MODEL       14
REMARK  Name = BDB5024
REMARK  11 active torsions:
REMARK  status: ('A' for Active; 'I' for Inactive)
REMARK    1  A    between atoms: C_2  and  O_23
REMARK    2  A    between atoms: C_3  and  C_4
REMARK    3  A    between atoms: C_7  and  N_12
REMARK    4  A    between atoms: C_8  and  C_9
REMARK    5  A    between atoms: C_9  and  C_16
REMARK    6  A    between atoms: C_9  and  N_19
REMARK    7  A    between atoms: C_10  and  C_11
REMARK    8  A    between atoms: C_10  and  C_16
REMARK    9  A    between atoms: C_16  and  C_17
REMARK   10  A    between atoms: C_17  and  C_18
REMARK   11  A    between atoms: C_20  and  C_21
REMARK                            x       y       z     vdW  Elec       q    Type
REMARK                         _______ _______ _______ _____ _____    ______ ____
ROOT
ATOM      1  C   UNL     1       0.674  -1.152  -0.271  0.00  0.00    +0.000 C 
ATOM      2  C   UNL     1      -1.119   0.347   0.427  0.00  0.00    +0.000 C 
ATOM      3  C   UNL     1      -0.887  -1.031  -0.225  0.00  0.00    +0.000 C 
ATOM      4  C   UNL     1       1.175   0.297   0.075  0.00  0.00    +0.000 C 
ATOM      5  C   UNL     1      -0.035   1.214  -0.274  0.00  0.00    +0.000 C 
ENDROOT
BRANCH   4   6
ATOM      6  N   UNL     1       2.477   0.619  -0.541  0.00  0.00    +0.000 N 
ATOM      7  C   UNL     1       2.703   0.624  -1.977  0.00  0.00    +0.000 C 
ATOM      8  N   UNL     1       3.837   1.000  -2.409  0.00  0.00    +0.000 N 
ATOM      9  N   UNL     1       1.703   0.235  -2.932  0.00  0.00    +0.000 N 
ATOM     10  H   UNL     1       3.227   0.972   0.066  0.00  0.00    +0.000 HD
ATOM     11  H   UNL     1       4.543   1.280  -1.768  0.00  0.00    +0.000 HD
ATOM     12  H   UNL     1       4.014   1.017  -3.387  0.00  0.00    +0.000 HD
ATOM     13  H   UNL     1       0.781  -0.063  -2.633  0.00  0.00    +0.000 HD
ATOM     14  H   UNL     1       1.923   0.265  -3.935  0.00  0.00    +0.000 HD
ENDBRANCH   4   6
BRANCH   3  15
ATOM     15  C   UNL     1      -1.408  -1.065  -1.660  0.00  0.00    +0.000 C 
ATOM     16  O   UNL     1      -1.485  -0.048  -2.357  0.00  0.00    +0.000 OA
ATOM     17  O   UNL     1      -1.899  -2.232  -2.149  0.00  0.00    +0.000 OA
ENDBRANCH   3  15
BRANCH   2  18
ATOM     18  O   UNL     1      -0.841   0.240   1.829  0.00  0.00    +0.000 OA
ATOM     19  H   UNL     1      -1.010   1.096   2.274  0.00  0.00    +0.000 HD
ENDBRANCH   2  18
BRANCH   5  20
ATOM     20  C   UNL     1      -0.035   2.729   0.231  0.00  0.00    +0.000 C 
BRANCH  20  21
ATOM     21  N   UNL     1       0.208   2.784   1.661  0.00  0.00    +0.000 N 
ATOM     22  C   UNL     1      -0.325   3.808   2.482  0.00  0.00    +0.000 C 
ATOM     23  C   UNL     1      -1.166   4.927   1.921  0.00  0.00    +0.000 C 
ATOM     24  O   UNL     1      -0.088   3.785   3.695  0.00  0.00    +0.000 OA
ATOM     25  H   UNL     1       0.764   2.078   2.083  0.00  0.00    +0.000 HD
ENDBRANCH  20  21
BRANCH  20  26
ATOM     26  C   UNL     1       0.968   3.719  -0.543  0.00  0.00    +0.000 C 
BRANCH  26  27
ATOM     27  C   UNL     1       0.706   3.677  -2.074  0.00  0.00    +0.000 C 
ATOM     28  C   UNL     1      -0.741   4.094  -2.415  0.00  0.00    +0.000 C 
ENDBRANCH  26  27
BRANCH  26  29
ATOM     29  C   UNL     1       2.486   3.496  -0.308  0.00  0.00    +0.000 C 
ATOM     30  C   UNL     1       2.915   3.793   1.143  0.00  0.00    +0.000 C 
ENDBRANCH  26  29
ENDBRANCH  20  26
ENDBRANCH   5  20
TORSDOF 8
ENDMDL
MODEL       15
REMARK  Name = BDB5009
REMARK  8 active torsions:
REMARK  status: ('A' for Active; 'I' for Inactive)
REMARK    1  A    between atoms: C_2  and  O_18
REMARK    2  A    between atoms: C_3  and  N_10
REMARK    3  A    between atoms: C_4  and  N_14
REMARK    4  A    between atoms: C_6  and  C_7
REMARK    5  A    between atoms: C_11  and  C_12
REMARK    6  A    between atoms: O_18  and  C_19
REMARK    7  A    between atoms: C_19  and  C_20
REMARK    8  A    between atoms: C_20  and  C_21
REMARK                            x       y       z     vdW  Elec       q    Type
REMARK                         _______ _______ _______ _____ _____    ______ ____
ROOT
ATOM      1  C   UNL     1       1.378  -0.798   0.286  0.00  0.00    +0.000 C 
ATOM      2  C   UNL     1       1.280   0.677  -0.002  0.00  0.00    +0.000 C 
ATOM      3  C   UNL     1      -0.110   1.219   0.368  0.00  0.00    +0.000 C 
ATOM      4  C   UNL     1      -1.196   0.313  -0.347  0.00  0.00    +0.000 C 
ATOM      5  C   UNL     1      -1.115  -1.103   0.144  0.00  0.00    +0.000 C 
ATOM      6  C   UNL     1       0.301  -1.608   0.290  0.00  0.00    +0.000 C 
ENDROOT
BRANCH   4   7
ATOM      7  N   UNL     1      -1.237   0.327  -1.895  0.00  0.00    +0.000 N 
ATOM      8  C   UNL     1      -0.411  -0.399  -2.941  0.00  0.00    +0.000 C 
ATOM      9  N   UNL     1      -0.686  -0.160  -4.149  0.00  0.00    +0.000 N 
ATOM     10  N   UNL     1       0.659  -1.346  -2.736  0.00  0.00    +0.000 N 
ATOM     11  H   UNL     1      -1.847   1.052  -2.294  0.00  0.00    +0.000 HD
ATOM     12  H   UNL     1      -1.415   0.472  -4.381  0.00  0.00    +0.000 HD
ATOM     13  H   UNL     1      -0.174  -0.614  -4.874  0.00  0.00    +0.000 HD
ATOM     14  H   UNL     1       0.976  -1.598  -1.861  0.00  0.00    +0.000 HD
ATOM     15  H   UNL     1       1.137  -1.734  -3.561  0.00  0.00    +0.000 HD
ENDBRANCH   4   7
BRANCH   3  16
ATOM     16  N   UNL     1      -0.316   1.449   1.893  0.00  0.00    +0.000 N 
ATOM     17  C   UNL     1      -0.297   0.560   3.088  0.00  0.00    +0.000 C 
ATOM     18  C   UNL     1      -0.073  -0.917   3.152  0.00  0.00    +0.000 C 
ATOM     19  O   UNL     1      -0.482   1.113   4.178  0.00  0.00    +0.000 OA
ATOM     20  H   UNL     1      -0.467   2.402   2.128  0.00  0.00    +0.000 HD
ENDBRANCH   3  16
BRANCH   6  21
ATOM     21  C   UNL     1       0.477  -3.033   0.475  0.00  0.00    +0.000 C 
ATOM     22  O   UNL     1       1.609  -3.511   0.585  0.00  0.00    +0.000 OA
ATOM     23  O   UNL     1      -0.612  -3.844   0.461  0.00  0.00    +0.000 OA
ENDBRANCH   6  21
BRANCH   2  24
ATOM     24  O   UNL     1       1.507   0.809  -1.436  0.00  0.00    +0.000 OA
BRANCH  24  25
ATOM     25  C   UNL     1       1.660   2.187  -1.847  0.00  0.00    +0.000 C 
BRANCH  25  26
ATOM     26  C   UNL     1       2.043   2.286  -3.355  0.00  0.00    +0.000 C 
ATOM     27  C   UNL     1       0.798   2.450  -4.252  0.00  0.00    +0.000 C 
ENDBRANCH  25  26
ENDBRANCH  24  25
ENDBRANCH   2  24
TORSDOF 6
ENDMDL
MODEL       16
REMARK  Name = BDB4945
REMARK  11 active torsions:
REMARK  status: ('A' for Active; 'I' for Inactive)
REMARK    1  A    between atoms: C_1  and  C_6
REMARK    2  A    between atoms: C_2  and  N_12
REMARK    3  A    between atoms: C_3  and  N_16
REMARK    4  A    between atoms: C_9  and  C_11
REMARK    5  A    between atoms: C_13  and  C_14
REMARK    6  A    between atoms: N_17  and  C_18
REMARK    7  A    between atoms: N_17  and  C_19
REMARK    8  A    between atoms: C_18  and  C_22
REMARK    9  A    between atoms: C_19  and  C_20
REMARK   10  A    between atoms: C_20  and  C_21
REMARK   11  A    between atoms: C_22  and  C_23
REMARK                            x       y       z     vdW  Elec       q    Type
REMARK                         _______ _______ _______ _____ _____    ______ ____
ROOT
ATOM      1  C   UNL     1       1.181  -0.703  -0.099  0.00  0.00    +0.000 C 
ATOM      2  C   UNL     1      -1.173   0.691  -0.403  0.00  0.00    +0.000 C 
ATOM      3  C   UNL     1      -1.268  -0.715   0.163  0.00  0.00    +0.000 C 
ATOM      4  C   UNL     1       0.039  -1.395  -0.026  0.00  0.00    +0.000 C 
ATOM      5  O   UNL     1       1.234   0.713   0.007  0.00  0.00    +0.000 OA
ATOM      6  C   UNL     1      -0.021   1.352   0.330  0.00  0.00    +0.000 C 
ENDROOT
BRANCH   2   7
ATOM      7  N   UNL     1      -2.424   1.401  -0.106  0.00  0.00    +0.000 N 
ATOM      8  C   UNL     1      -2.993   1.622   1.196  0.00  0.00    +0.000 C 
ATOM      9  C   UNL     1      -2.353   1.133   2.481  0.00  0.00    +0.000 C 
ATOM     10  O   UNL     1      -4.059   2.243   1.272  0.00  0.00    +0.000 OA
ATOM     11  H   UNL     1      -2.946   1.779  -0.910  0.00  0.00    +0.000 HD
ENDBRANCH   2   7
BRANCH   3  12
ATOM     12  N   UNL     1      -2.341  -1.465  -0.505  0.00  0.00    +0.000 N 
ATOM     13  H   UNL     1      -2.140  -1.514  -1.514  0.00  0.00    +0.000 HD
ATOM     14  H   UNL     1      -3.235  -0.975  -0.360  0.00  0.00    +0.000 HD
ATOM     15  H   UNL     1      -2.399  -2.417  -0.116  0.00  0.00    +0.000 HD
ENDBRANCH   3  12
BRANCH   6  16
ATOM     16  C   UNL     1       0.070   2.834  -0.043  0.00  0.00    +0.000 C 
ATOM     17  O   UNL     1      -0.664   3.629   0.555  0.00  0.00    +0.000 OA
ATOM     18  N   UNL     1       0.938   3.354  -1.052  0.00  0.00    +0.000 N 
BRANCH  18  19
ATOM     19  C   UNL     1       1.777   2.509  -1.878  0.00  0.00    +0.000 C 
BRANCH  19  20
ATOM     20  C   UNL     1       0.983   1.982  -3.097  0.00  0.00    +0.000 C 
ATOM     21  C   UNL     1       1.908   1.118  -3.972  0.00  0.00    +0.000 C 
ENDBRANCH  19  20
ENDBRANCH  18  19
BRANCH  18  22
ATOM     22  C   UNL     1       0.956   4.784  -1.254  0.00  0.00    +0.000 C 
BRANCH  22  23
ATOM     23  C   UNL     1       1.923   5.174  -2.392  0.00  0.00    +0.000 C 
BRANCH  23  24
ATOM     24  C   UNL     1       1.908   6.662  -2.584  0.00  0.00    +0.000 A 
ATOM     25  C   UNL     1       1.873   9.416  -2.951  0.00  0.00    +0.000 A 
ATOM     26  C   UNL     1       1.157   8.846  -1.906  0.00  0.00    +0.000 A 
ATOM     27  C   UNL     1       1.175   7.467  -1.723  0.00  0.00    +0.000 A 
ATOM     28  C   UNL     1       2.625   7.233  -3.630  0.00  0.00    +0.000 A 
ATOM     29  C   UNL     1       2.607   8.610  -3.813  0.00  0.00    +0.000 A 
ENDBRANCH  23  24
ENDBRANCH  22  23
ENDBRANCH  18  22
ENDBRANCH   6  16
BRANCH   1  30
ATOM     30  C   UNL     1       2.428  -1.433  -0.336  0.00  0.00    +0.000 C 
ATOM     31  O   UNL     1       3.497  -0.818  -0.424  0.00  0.00    +0.000 OA
ATOM     32  O   UNL     1       2.410  -2.786  -0.458  0.00  0.00    +0.000 OA
ENDBRANCH   1  30
TORSDOF 9
ENDMDL
MODEL       17
REMARK  Name = BDB4972
REMARK  12 active torsions:
REMARK  status: ('A' for Active; 'I' for Inactive)
REMARK    1  A    between atoms: C_1  and  C_6
REMARK    2  A    between atoms: C_2  and  N_12
REMARK    3  A    between atoms: C_3  and  N_16
REMARK    4  A    between atoms: C_9  and  C_11
REMARK    5  A    between atoms: C_13  and  C_14
REMARK    6  A    between atoms: C_17  and  C_18
REMARK    7  A    between atoms: C_17  and  N_23
REMARK    8  A    between atoms: C_18  and  C_19
REMARK    9  A    between atoms: N_23  and  C_24
REMARK   10  A    between atoms: C_24  and  C_25
REMARK   11  A    between atoms: C_25  and  C_26
REMARK   12  A    between atoms: C_28  and  C_29
REMARK                            x       y       z     vdW  Elec       q    Type
REMARK                         _______ _______ _______ _____ _____    ______ ____
ROOT
ATOM      1  C   UNL     1       0.070   2.834  -0.043  0.00  0.00    +0.000 C 
ATOM      2  O   UNL     1      -0.664   3.629   0.555  0.00  0.00    +0.000 OA
ATOM      3  N   UNL     1       0.938   3.354  -1.052  0.00  0.00    +0.000 N 
ENDROOT
BRANCH   1   9
ATOM      4  C   UNL     1       1.181  -0.703  -0.099  0.00  0.00    +0.000 C 
ATOM      5  C   UNL     1      -1.173   0.691  -0.403  0.00  0.00    +0.000 C 
ATOM      6  C   UNL     1      -1.268  -0.715   0.163  0.00  0.00    +0.000 C 
ATOM      7  C   UNL     1       0.039  -1.395  -0.026  0.00  0.00    +0.000 C 
ATOM      8  O   UNL     1       1.234   0.713   0.007  0.00  0.00    +0.000 OA
ATOM      9  C   UNL     1      -0.021   1.352   0.330  0.00  0.00    +0.000 C 
BRANCH   5  10
ATOM     10  N   UNL     1      -2.424   1.401  -0.106  0.00  0.00    +0.000 N 
ATOM     11  C   UNL     1      -2.993   1.622   1.196  0.00  0.00    +0.000 C 
ATOM     12  C   UNL     1      -2.353   1.133   2.481  0.00  0.00    +0.000 C 
ATOM     13  O   UNL     1      -4.059   2.243   1.272  0.00  0.00    +0.000 OA
ATOM     14  H   UNL     1      -2.946   1.779  -0.910  0.00  0.00    +0.000 HD
ENDBRANCH   5  10
BRANCH   6  15
ATOM     15  N   UNL     1      -2.341  -1.465  -0.505  0.00  0.00    +0.000 N 
ATOM     16  H   UNL     1      -2.140  -1.514  -1.514  0.00  0.00    +0.000 HD
ATOM     17  H   UNL     1      -3.235  -0.975  -0.360  0.00  0.00    +0.000 HD
ATOM     18  H   UNL     1      -2.399  -2.417  -0.116  0.00  0.00    +0.000 HD
ENDBRANCH   6  15
BRANCH   4  19
ATOM     19  C   UNL     1       2.428  -1.433  -0.336  0.00  0.00    +0.000 C 
ATOM     20  O   UNL     1       3.497  -0.818  -0.424  0.00  0.00    +0.000 OA
ATOM     21  O   UNL     1       2.410  -2.786  -0.458  0.00  0.00    +0.000 OA
ENDBRANCH   4  19
ENDBRANCH   1   9
BRANCH   3  22
ATOM     22  C   UNL     1       1.777   2.509  -1.878  0.00  0.00    +0.000 C 
BRANCH  22  23
ATOM     23  C   UNL     1       0.983   1.982  -3.097  0.00  0.00    +0.000 C 
ATOM     24  C   UNL     1       1.908   1.118  -3.972  0.00  0.00    +0.000 C 
ENDBRANCH  22  23
ENDBRANCH   3  22
BRANCH   3  25
ATOM     25  C   UNL     1       0.956   4.784  -1.254  0.00  0.00    +0.000 C 
BRANCH  25  26
ATOM     26  C   UNL     1       1.923   5.174  -2.392  0.00  0.00    +0.000 C 
BRANCH  26  27
ATOM     27  C   UNL     1       1.908   6.662  -2.584  0.00  0.00    +0.000 A 
ATOM     28  C   UNL     1       1.175   7.468  -1.723  0.00  0.00    +0.000 A 
ATOM     29  C   UNL     1       2.625   7.232  -3.630  0.00  0.00    +0.000 A 
ATOM     30  C   UNL     1       2.608   8.610  -3.813  0.00  0.00    +0.000 A 
ATOM     31  C   UNL     1       1.874   9.416  -2.952  0.00  0.00    +0.000 A 
ATOM     32  C   UNL     1       1.158   8.845  -1.906  0.00  0.00    +0.000 A 
BRANCH  32  33
ATOM     33  C   UNL     1       0.384   9.697  -0.998  0.00  0.00    +0.000 A 
ATOM     34  C   UNL     1      -1.067   9.935   0.909  0.00  0.00    +0.000 A 
ATOM     35  C   UNL     1      -1.083  11.313   0.724  0.00  0.00    +0.000 A 
ATOM     36  C   UNL     1      -0.366  11.882  -0.321  0.00  0.00    +0.000 A 
ATOM     37  C   UNL     1       0.367  11.073  -1.183  0.00  0.00    +0.000 A 
ATOM     38  C   UNL     1      -0.334   9.127   0.049  0.00  0.00    +0.000 A 
ENDBRANCH  32  33
ENDBRANCH  26  27
ENDBRANCH  25  26
ENDBRANCH   3  25
TORSDOF 10
ENDMDL
MODEL       18
REMARK  Name = BDB4937
REMARK  9 active torsions:
REMARK  status: ('A' for Active; 'I' for Inactive)
REMARK    1  A    between atoms: C_1  and  C_6
REMARK    2  A    between atoms: C_2  and  N_12
REMARK    3  A    between atoms: C_3  and  N_16
REMARK    4  A    between atoms: C_9  and  C_11
REMARK    5  A    between atoms: C_13  and  C_14
REMARK    6  A    between atoms: N_17  and  C_18
REMARK    7  A    between atoms: N_17  and  C_20
REMARK    8  A    between atoms: C_18  and  C_19
REMARK    9  A    between atoms: C_20  and  C_21
REMARK                            x       y       z     vdW  Elec       q    Type
REMARK                         _______ _______ _______ _____ _____    ______ ____
ROOT
ATOM      1  C   UNL     1       1.181  -0.703  -0.099  0.00  0.00    +0.000 C 
ATOM      2  C   UNL     1      -1.173   0.691  -0.403  0.00  0.00    +0.000 C 
ATOM      3  C   UNL     1      -1.268  -0.715   0.163  0.00  0.00    +0.000 C 
ATOM      4  C   UNL     1       0.039  -1.395  -0.026  0.00  0.00    +0.000 C 
ATOM      5  O   UNL     1       1.234   0.713   0.007  0.00  0.00    +0.000 OA
ATOM      6  C   UNL     1      -0.021   1.352   0.330  0.00  0.00    +0.000 C 
ENDROOT
BRANCH   2   7
ATOM      7  N   UNL     1      -2.424   1.401  -0.106  0.00  0.00    +0.000 N 
ATOM      8  C   UNL     1      -2.993   1.622   1.196  0.00  0.00    +0.000 C 
ATOM      9  C   UNL     1      -2.353   1.133   2.481  0.00  0.00    +0.000 C 
ATOM     10  O   UNL     1      -4.059   2.243   1.272  0.00  0.00    +0.000 OA
ATOM     11  H   UNL     1      -2.946   1.779  -0.910  0.00  0.00    +0.000 HD
ENDBRANCH   2   7
BRANCH   3  12
ATOM     12  N   UNL     1      -2.341  -1.465  -0.505  0.00  0.00    +0.000 N 
ATOM     13  H   UNL     1      -2.140  -1.514  -1.514  0.00  0.00    +0.000 HD
ATOM     14  H   UNL     1      -3.235  -0.975  -0.360  0.00  0.00    +0.000 HD
ATOM     15  H   UNL     1      -2.399  -2.417  -0.116  0.00  0.00    +0.000 HD
ENDBRANCH   3  12
BRANCH   6  16
ATOM     16  C   UNL     1       0.070   2.836  -0.044  0.00  0.00    +0.000 C 
ATOM     17  O   UNL     1      -0.721   3.619   0.496  0.00  0.00    +0.000 OA
ATOM     18  N   UNL     1       0.994   3.369  -0.994  0.00  0.00    +0.000 N 
BRANCH  18  19
ATOM     19  C   UNL     1       0.997   4.792  -1.218  0.00  0.00    +0.000 C 
ATOM     20  C   UNL     1       2.421   5.282  -1.559  0.00  0.00    +0.000 C 
ENDBRANCH  18  19
BRANCH  18  21
ATOM     21  C   UNL     1       1.880   2.533  -1.773  0.00  0.00    +0.000 C 
ATOM     22  C   UNL     1       1.202   2.147  -3.106  0.00  0.00    +0.000 C 
ENDBRANCH  18  21
ENDBRANCH   6  16
BRANCH   1  23
ATOM     23  C   UNL     1       2.428  -1.433  -0.336  0.00  0.00    +0.000 C 
ATOM     24  O   UNL     1       3.497  -0.818  -0.424  0.00  0.00    +0.000 OA
ATOM     25  O   UNL     1       2.410  -2.786  -0.458  0.00  0.00    +0.000 OA
ENDBRANCH   1  23
TORSDOF 6
ENDMDL
MODEL       19
REMARK  Name = BDB5015
REMARK  10 active torsions:
REMARK  status: ('A' for Active; 'I' for Inactive)
REMARK    1  A    between atoms: C_1  and  O_14
REMARK    2  A    between atoms: C_2  and  N_9
REMARK    3  A    between atoms: C_3  and  N_13
REMARK    4  A    between atoms: C_5  and  C_6
REMARK    5  A    between atoms: C_10  and  C_11
REMARK    6  A    between atoms: O_14  and  C_15
REMARK    7  A    between atoms: C_15  and  C_16
REMARK    8  A    between atoms: C_15  and  C_18
REMARK    9  A    between atoms: C_16  and  C_17
REMARK   10  A    between atoms: C_18  and  C_19
REMARK                            x       y       z     vdW  Elec       q    Type
REMARK                         _______ _______ _______ _____ _____    ______ ____
ROOT
ATOM      1  C   UNL     1       1.133  -0.652   0.263  0.00  0.00    +0.000 C 
ATOM      2  C   UNL     1      -0.173  -1.241  -0.397  0.00  0.00    +0.000 C 
ATOM      3  C   UNL     1      -1.486  -0.527   0.051  0.00  0.00    +0.000 C 
ATOM      4  C   UNL     1      -1.373   0.950  -0.309  0.00  0.00    +0.000 C 
ATOM      5  C   UNL     1      -0.015   1.585   0.108  0.00  0.00    +0.000 C 
ATOM      6  C   UNL     1       1.110   0.857   0.338  0.00  0.00    +0.000 C 
ATOM      7  F   UNL     1       2.253   1.480   0.650  0.00  0.00    +0.000 F 
ENDROOT
BRANCH   2   8
ATOM      8  N   UNL     1      -0.177  -1.294  -1.925  0.00  0.00    +0.000 N 
ATOM      9  C   UNL     1       0.105  -0.285  -2.955  0.00  0.00    +0.000 C 
ATOM     10  C   UNL     1       0.774   1.044  -2.766  0.00  0.00    +0.000 C 
ATOM     11  O   UNL     1      -0.181  -0.596  -4.117  0.00  0.00    +0.000 OA
ATOM     12  H   UNL     1      -0.456  -2.172  -2.293  0.00  0.00    +0.000 HD
ENDBRANCH   2   8
BRANCH   3  13
ATOM     13  N   UNL     1      -1.808  -0.601   1.446  0.00  0.00    +0.000 N 
ATOM     14  H   UNL     1      -1.150  -0.088   1.966  0.00  0.00    +0.000 HD
ATOM     15  H   UNL     1      -1.837  -1.586   1.742  0.00  0.00    +0.000 HD
ATOM     16  H   UNL     1      -2.729  -0.174   1.594  0.00  0.00    +0.000 HD
ENDBRANCH   3  13
BRANCH   5  17
ATOM     17  C   UNL     1       0.055   3.056   0.173  0.00  0.00    +0.000 C 
ATOM     18  O   UNL     1      -0.969   3.719  -0.038  0.00  0.00    +0.000 OA
ATOM     19  O   UNL     1       1.229   3.702   0.402  0.00  0.00    +0.000 OA
ENDBRANCH   5  17
BRANCH   1  20
ATOM     20  O   UNL     1       1.521  -1.209   1.605  0.00  0.00    +0.000 OA
BRANCH  20  21
ATOM     21  C   UNL     1       0.920  -0.692   2.805  0.00  0.00    +0.000 C 
BRANCH  21  22
ATOM     22  C   UNL     1       0.137  -1.819   3.536  0.00  0.00    +0.000 C 
ATOM     23  C   UNL     1       1.047  -3.026   3.811  0.00  0.00    +0.000 C 
ENDBRANCH  21  22
BRANCH  21  24
ATOM     24  C   UNL     1       2.013  -0.138   3.745  0.00  0.00    +0.000 C 
ATOM     25  C   UNL     1       1.357   0.478   5.002  0.00  0.00    +0.000 C 
ENDBRANCH  21  24
ENDBRANCH  20  21
ENDBRANCH   1  20
TORSDOF 7
ENDMDL
MODEL       20
REMARK  Name = BDB4965
REMARK  13 active torsions:
REMARK  status: ('A' for Active; 'I' for Inactive)
REMARK    1  A    between atoms: C_1  and  C_6
REMARK    2  A    between atoms: C_2  and  N_12
REMARK    3  A    between atoms: C_3  and  N_16
REMARK    4  A    between atoms: C_9  and  C_11
REMARK    5  A    between atoms: C_13  and  C_14
REMARK    6  A    between atoms: C_17  and  C_18
REMARK    7  A    between atoms: C_17  and  N_24
REMARK    8  A    between atoms: C_18  and  C_19
REMARK    9  A    between atoms: C_20  and  O_29
REMARK   10  A    between atoms: N_24  and  C_25
REMARK   11  A    between atoms: C_25  and  C_26
REMARK   12  A    between atoms: C_26  and  C_27
REMARK   13  A    between atoms: O_29  and  C_30
REMARK                            x       y       z     vdW  Elec       q    Type
REMARK                         _______ _______ _______ _____ _____    ______ ____
ROOT
ATOM      1  C   UNL     1       1.181  -0.703  -0.099  0.00  0.00    +0.000 C 
ATOM      2  C   UNL     1      -1.173   0.691  -0.403  0.00  0.00    +0.000 C 
ATOM      3  C   UNL     1      -1.268  -0.715   0.163  0.00  0.00    +0.000 C 
ATOM      4  C   UNL     1       0.039  -1.395  -0.026  0.00  0.00    +0.000 C 
ATOM      5  O   UNL     1       1.234   0.713   0.007  0.00  0.00    +0.000 OA
ATOM      6  C   UNL     1      -0.021   1.352   0.330  0.00  0.00    +0.000 C 
ENDROOT
BRANCH   2   7
ATOM      7  N   UNL     1      -2.424   1.401  -0.106  0.00  0.00    +0.000 N 
ATOM      8  C   UNL     1      -2.993   1.622   1.196  0.00  0.00    +0.000 C 
ATOM      9  C   UNL     1      -2.353   1.133   2.481  0.00  0.00    +0.000 C 
ATOM     10  O   UNL     1      -4.059   2.243   1.272  0.00  0.00    +0.000 OA
ATOM     11  H   UNL     1      -2.946   1.779  -0.910  0.00  0.00    +0.000 HD
ENDBRANCH   2   7
BRANCH   3  12
ATOM     12  N   UNL     1      -2.341  -1.465  -0.505  0.00  0.00    +0.000 N 
ATOM     13  H   UNL     1      -2.140  -1.514  -1.514  0.00  0.00    +0.000 HD
ATOM     14  H   UNL     1      -3.235  -0.975  -0.360  0.00  0.00    +0.000 HD
ATOM     15  H   UNL     1      -2.399  -2.417  -0.116  0.00  0.00    +0.000 HD
ENDBRANCH   3  12
BRANCH   1  16
ATOM     16  C   UNL     1       2.428  -1.433  -0.336  0.00  0.00    +0.000 C 
ATOM     17  O   UNL     1       3.497  -0.818  -0.424  0.00  0.00    +0.000 OA
ATOM     18  O   UNL     1       2.410  -2.786  -0.458  0.00  0.00    +0.000 OA
ENDBRANCH   1  16
BRANCH   6  19
ATOM     19  C   UNL     1       0.070   2.834  -0.043  0.00  0.00    +0.000 C 
ATOM     20  O   UNL     1      -0.664   3.629   0.555  0.00  0.00    +0.000 OA
ATOM     21  N   UNL     1       0.938   3.354  -1.052  0.00  0.00    +0.000 N 
BRANCH  21  22
ATOM     22  C   UNL     1       1.777   2.509  -1.878  0.00  0.00    +0.000 C 
BRANCH  22  23
ATOM     23  C   UNL     1       0.983   1.982  -3.097  0.00  0.00    +0.000 C 
ATOM     24  C   UNL     1       1.908   1.118  -3.972  0.00  0.00    +0.000 C 
ENDBRANCH  22  23
ENDBRANCH  21  22
BRANCH  21  25
ATOM     25  C   UNL     1       0.956   4.784  -1.254  0.00  0.00    +0.000 C 
BRANCH  25  26
ATOM     26  C   UNL     1       1.923   5.174  -2.392  0.00  0.00    +0.000 C 
BRANCH  26  27
ATOM     27  C   UNL     1       1.908   6.662  -2.584  0.00  0.00    +0.000 A 
ATOM     28  C   UNL     1       1.157   8.846  -1.906  0.00  0.00    +0.000 A 
ATOM     29  C   UNL     1       1.175   7.468  -1.722  0.00  0.00    +0.000 A 
ATOM     30  C   UNL     1       2.625   7.232  -3.630  0.00  0.00    +0.000 A 
ATOM     31  C   UNL     1       2.608   8.610  -3.813  0.00  0.00    +0.000 A 
ATOM     32  C   UNL     1       1.874   9.416  -2.951  0.00  0.00    +0.000 A 
BRANCH  28  33
ATOM     33  O   UNL     1       0.419   9.659  -1.039  0.00  0.00    +0.000 OA
ATOM     34  C   UNL     1       0.538  11.040  -1.406  0.00  0.00    +0.000 C 
ENDBRANCH  28  33
ENDBRANCH  26  27
ENDBRANCH  25  26
ENDBRANCH  21  25
ENDBRANCH   6  19
TORSDOF 10
ENDMDL
MODEL       21
REMARK  Name = BDB4952
REMARK  10 active torsions:
REMARK  status: ('A' for Active; 'I' for Inactive)
REMARK    1  A    between atoms: C_1  and  C_6
REMARK    2  A    between atoms: C_2  and  N_12
REMARK    3  A    between atoms: C_3  and  N_16
REMARK    4  A    between atoms: C_9  and  C_11
REMARK    5  A    between atoms: C_13  and  C_14
REMARK    6  A    between atoms: N_17  and  C_18
REMARK    7  A    between atoms: N_17  and  C_26
REMARK    8  A    between atoms: C_18  and  C_19
REMARK    9  A    between atoms: C_19  and  C_20
REMARK   10  A    between atoms: C_26  and  C_27
REMARK                            x       y       z     vdW  Elec       q    Type
REMARK                         _______ _______ _______ _____ _____    ______ ____
ROOT
ATOM      1  C   UNL     1       1.181  -0.703  -0.099  0.00  0.00    +0.000 C 
ATOM      2  C   UNL     1      -1.173   0.691  -0.403  0.00  0.00    +0.000 C 
ATOM      3  C   UNL     1      -1.268  -0.715   0.163  0.00  0.00    +0.000 C 
ATOM      4  C   UNL     1       0.039  -1.395  -0.026  0.00  0.00    +0.000 C 
ATOM      5  O   UNL     1       1.234   0.713   0.007  0.00  0.00    +0.000 OA
ATOM      6  C   UNL     1      -0.021   1.352   0.330  0.00  0.00    +0.000 C 
ENDROOT
BRANCH   2   7
ATOM      7  N   UNL     1      -2.424   1.401  -0.106  0.00  0.00    +0.000 N 
ATOM      8  C   UNL     1      -2.993   1.622   1.196  0.00  0.00    +0.000 C 
ATOM      9  C   UNL     1      -2.353   1.133   2.481  0.00  0.00    +0.000 C 
ATOM     10  O   UNL     1      -4.059   2.243   1.272  0.00  0.00    +0.000 OA
ATOM     11  H   UNL     1      -2.946   1.779  -0.910  0.00  0.00    +0.000 HD
ENDBRANCH   2   7
BRANCH   3  12
ATOM     12  N   UNL     1      -2.341  -1.465  -0.505  0.00  0.00    +0.000 N 
ATOM     13  H   UNL     1      -2.140  -1.514  -1.514  0.00  0.00    +0.000 HD
ATOM     14  H   UNL     1      -3.235  -0.975  -0.360  0.00  0.00    +0.000 HD
ATOM     15  H   UNL     1      -2.399  -2.417  -0.116  0.00  0.00    +0.000 HD
ENDBRANCH   3  12
BRANCH   6  16
ATOM     16  C   UNL     1       0.070   2.836  -0.044  0.00  0.00    +0.000 C 
ATOM     17  O   UNL     1      -0.712   3.619   0.505  0.00  0.00    +0.000 OA
ATOM     18  N   UNL     1       0.996   3.373  -0.994  0.00  0.00    +0.000 N 
BRANCH  18  19
ATOM     19  C   UNL     1       1.882   2.541  -1.787  0.00  0.00    +0.000 C 
ATOM     20  C   UNL     1       1.136   1.975  -3.023  0.00  0.00    +0.000 C 
ENDBRANCH  18  19
BRANCH  18  21
ATOM     21  C   UNL     1       1.022   4.808  -1.168  0.00  0.00    +0.000 C 
BRANCH  21  22
ATOM     22  C   UNL     1       2.056   5.228  -2.234  0.00  0.00    +0.000 C 
BRANCH  22  23
ATOM     23  C   UNL     1       2.048   6.721  -2.387  0.00  0.00    +0.000 A 
ATOM     24  C   UNL     1       2.033   9.484  -2.682  0.00  0.00    +0.000 A 
ATOM     25  C   UNL     1       1.256   8.887  -1.697  0.00  0.00    +0.000 A 
ATOM     26  C   UNL     1       1.264   7.504  -1.550  0.00  0.00    +0.000 A 
ATOM     27  C   UNL     1       2.826   7.319  -3.372  0.00  0.00    +0.000 A 
ATOM     28  C   UNL     1       2.818   8.700  -3.519  0.00  0.00    +0.000 A 
ENDBRANCH  22  23
ENDBRANCH  21  22
ENDBRANCH  18  21
ENDBRANCH   6  16
BRANCH   1  29
ATOM     29  C   UNL     1       2.428  -1.433  -0.336  0.00  0.00    +0.000 C 
ATOM     30  O   UNL     1       3.497  -0.818  -0.424  0.00  0.00    +0.000 OA
ATOM     31  O   UNL     1       2.410  -2.786  -0.458  0.00  0.00    +0.000 OA
ENDBRANCH   1  29
TORSDOF 8
ENDMDL
MODEL       22
REMARK  Name = BDB4946
REMARK  11 active torsions:
REMARK  status: ('A' for Active; 'I' for Inactive)
REMARK    1  A    between atoms: C_1  and  C_6
REMARK    2  A    between atoms: C_2  and  N_13
REMARK    3  A    between atoms: C_3  and  N_17
REMARK    4  A    between atoms: C_9  and  C_11
REMARK    5  A    between atoms: N_12  and  C_21
REMARK    6  A    between atoms: N_12  and  C_22
REMARK    7  A    between atoms: C_14  and  C_15
REMARK    8  A    between atoms: C_21  and  C_25
REMARK    9  A    between atoms: C_22  and  C_23
REMARK   10  A    between atoms: C_23  and  C_24
REMARK   11  A    between atoms: C_25  and  C_26
REMARK                            x       y       z     vdW  Elec       q    Type
REMARK                         _______ _______ _______ _____ _____    ______ ____
ROOT
ATOM      1  C   UNL     1       1.181  -0.703  -0.099  0.00  0.00    +0.000 C 
ATOM      2  C   UNL     1      -1.173   0.691  -0.403  0.00  0.00    +0.000 C 
ATOM      3  C   UNL     1      -1.268  -0.715   0.163  0.00  0.00    +0.000 C 
ATOM      4  C   UNL     1       0.039  -1.395  -0.026  0.00  0.00    +0.000 C 
ATOM      5  O   UNL     1       1.234   0.713   0.007  0.00  0.00    +0.000 OA
ATOM      6  C   UNL     1      -0.021   1.352   0.330  0.00  0.00    +0.000 C 
ENDROOT
BRANCH   3   7
ATOM      7  N   UNL     1      -2.326  -1.455  -0.498  0.00  0.00    +0.000 N 
ATOM      8  C   UNL     1      -2.333  -1.701  -1.890  0.00  0.00    +0.000 C 
ATOM      9  N   UNL     1      -3.293  -2.358  -2.400  0.00  0.00    +0.000 N 
ATOM     10  N   UNL     1      -1.304  -1.236  -2.720  0.00  0.00    +0.000 N 
ATOM     11  H   UNL     1      -3.104  -1.817   0.071  0.00  0.00    +0.000 HD
ATOM     12  H   UNL     1      -4.060  -2.709  -1.809  0.00  0.00    +0.000 HD
ATOM     13  H   UNL     1      -3.303  -2.540  -3.414  0.00  0.00    +0.000 HD
ATOM     14  H   UNL     1      -0.528  -0.704  -2.300  0.00  0.00    +0.000 HD
ATOM     15  H   UNL     1      -1.320  -1.421  -3.733  0.00  0.00    +0.000 HD
ENDBRANCH   3   7
BRANCH   2  16
ATOM     16  N   UNL     1      -2.424   1.401  -0.106  0.00  0.00    +0.000 N 
ATOM     17  C   UNL     1      -2.993   1.622   1.196  0.00  0.00    +0.000 C 
ATOM     18  C   UNL     1      -2.353   1.133   2.481  0.00  0.00    +0.000 C 
ATOM     19  O   UNL     1      -4.059   2.243   1.272  0.00  0.00    +0.000 OA
ATOM     20  H   UNL     1      -2.946   1.779  -0.910  0.00  0.00    +0.000 HD
ENDBRANCH   2  16
BRANCH   6  21
ATOM     21  C   UNL     1       0.070   2.834  -0.043  0.00  0.00    +0.000 C 
ATOM     22  O   UNL     1      -0.664   3.629   0.555  0.00  0.00    +0.000 OA
ATOM     23  N   UNL     1       0.938   3.354  -1.052  0.00  0.00    +0.000 N 
BRANCH  23  24
ATOM     24  C   UNL     1       1.777   2.509  -1.878  0.00  0.00    +0.000 C 
BRANCH  24  25
ATOM     25  C   UNL     1       0.983   1.982  -3.097  0.00  0.00    +0.000 C 
ATOM     26  C   UNL     1       1.908   1.118  -3.972  0.00  0.00    +0.000 C 
ENDBRANCH  24  25
ENDBRANCH  23  24
BRANCH  23  27
ATOM     27  C   UNL     1       0.956   4.784  -1.254  0.00  0.00    +0.000 C 
BRANCH  27  28
ATOM     28  C   UNL     1       1.923   5.174  -2.392  0.00  0.00    +0.000 C 
BRANCH  28  29
ATOM     29  C   UNL     1       1.908   6.662  -2.584  0.00  0.00    +0.000 A 
ATOM     30  C   UNL     1       2.625   7.233  -3.630  0.00  0.00    +0.000 A 
ATOM     31  C   UNL     1       2.607   8.610  -3.813  0.00  0.00    +0.000 A 
ATOM     32  C   UNL     1       1.873   9.416  -2.951  0.00  0.00    +0.000 A 
ATOM     33  C   UNL     1       1.157   8.846  -1.906  0.00  0.00    +0.000 A 
ATOM     34  C   UNL     1       1.175   7.467  -1.723  0.00  0.00    +0.000 A 
ENDBRANCH  28  29
ENDBRANCH  27  28
ENDBRANCH  23  27
ENDBRANCH   6  21
BRANCH   1  35
ATOM     35  C   UNL     1       2.428  -1.433  -0.336  0.00  0.00    +0.000 C 
ATOM     36  O   UNL     1       3.497  -0.818  -0.424  0.00  0.00    +0.000 OA
ATOM     37  O   UNL     1       2.410  -2.786  -0.458  0.00  0.00    +0.000 OA
ENDBRANCH   1  35
TORSDOF 9
ENDMDL
MODEL       23
REMARK  Name = BDB4968
REMARK  11 active torsions:
REMARK  status: ('A' for Active; 'I' for Inactive)
REMARK    1  A    between atoms: C_1  and  C_6
REMARK    2  A    between atoms: C_2  and  N_12
REMARK    3  A    between atoms: C_3  and  N_16
REMARK    4  A    between atoms: C_9  and  C_11
REMARK    5  A    between atoms: C_13  and  C_14
REMARK    6  A    between atoms: C_17  and  C_18
REMARK    7  A    between atoms: C_17  and  N_24
REMARK    8  A    between atoms: C_18  and  C_19
REMARK    9  A    between atoms: N_24  and  C_25
REMARK   10  A    between atoms: C_25  and  C_26
REMARK   11  A    between atoms: C_26  and  C_27
REMARK                            x       y       z     vdW  Elec       q    Type
REMARK                         _______ _______ _______ _____ _____    ______ ____
ROOT
ATOM      1  C   UNL     1       1.181  -0.703  -0.099  0.00  0.00    +0.000 C 
ATOM      2  C   UNL     1      -1.173   0.691  -0.403  0.00  0.00    +0.000 C 
ATOM      3  C   UNL     1      -1.268  -0.715   0.163  0.00  0.00    +0.000 C 
ATOM      4  C   UNL     1       0.039  -1.395  -0.026  0.00  0.00    +0.000 C 
ATOM      5  O   UNL     1       1.234   0.713   0.007  0.00  0.00    +0.000 OA
ATOM      6  C   UNL     1      -0.021   1.352   0.330  0.00  0.00    +0.000 C 
ENDROOT
BRANCH   2   7
ATOM      7  N   UNL     1      -2.424   1.401  -0.106  0.00  0.00    +0.000 N 
ATOM      8  C   UNL     1      -2.993   1.622   1.196  0.00  0.00    +0.000 C 
ATOM      9  C   UNL     1      -2.353   1.133   2.481  0.00  0.00    +0.000 C 
ATOM     10  O   UNL     1      -4.059   2.243   1.272  0.00  0.00    +0.000 OA
ATOM     11  H   UNL     1      -2.946   1.779  -0.910  0.00  0.00    +0.000 HD
ENDBRANCH   2   7
BRANCH   3  12
ATOM     12  N   UNL     1      -2.341  -1.465  -0.505  0.00  0.00    +0.000 N 
ATOM     13  H   UNL     1      -2.140  -1.514  -1.514  0.00  0.00    +0.000 HD
ATOM     14  H   UNL     1      -3.235  -0.975  -0.360  0.00  0.00    +0.000 HD
ATOM     15  H   UNL     1      -2.399  -2.417  -0.116  0.00  0.00    +0.000 HD
ENDBRANCH   3  12
BRANCH   1  16
ATOM     16  C   UNL     1       2.428  -1.433  -0.336  0.00  0.00    +0.000 C 
ATOM     17  O   UNL     1       3.497  -0.818  -0.424  0.00  0.00    +0.000 OA
ATOM     18  O   UNL     1       2.410  -2.786  -0.458  0.00  0.00    +0.000 OA
ENDBRANCH   1  16
BRANCH   6  19
ATOM     19  C   UNL     1       0.070   2.831  -0.041  0.00  0.00    +0.000 C 
ATOM     20  O   UNL     1      -0.568   3.641   0.640  0.00  0.00    +0.000 OA
ATOM     21  N   UNL     1       0.829   3.333  -1.142  0.00  0.00    +0.000 N 
BRANCH  21  22
ATOM     22  C   UNL     1       1.617   2.476  -2.014  0.00  0.00    +0.000 C 
BRANCH  22  23
ATOM     23  C   UNL     1       0.801   2.030  -3.252  0.00  0.00    +0.000 C 
ATOM     24  C   UNL     1       1.706   1.201  -4.183  0.00  0.00    +0.000 C 
ENDBRANCH  22  23
ENDBRANCH  21  22
BRANCH  21  25
ATOM     25  C   UNL     1       0.824   4.763  -1.357  0.00  0.00    +0.000 C 
BRANCH  25  26
ATOM     26  C   UNL     1       1.683   5.165  -2.575  0.00  0.00    +0.000 C 
BRANCH  26  27
ATOM     27  C   UNL     1       1.646   6.654  -2.758  0.00  0.00    +0.000 A 
ATOM     28  C   UNL     1       2.171   8.612  -4.055  0.00  0.00    +0.000 A 
ATOM     29  C   UNL     1       2.213   7.234  -3.886  0.00  0.00    +0.000 A 
ATOM     30  C   UNL     1       1.036   7.452  -1.797  0.00  0.00    +0.000 A 
ATOM     31  C   UNL     1       0.994   8.831  -1.966  0.00  0.00    +0.000 A 
ATOM     32  C   UNL     1       1.562   9.411  -3.095  0.00  0.00    +0.000 A 
ATOM     33 CL   UNL     1       1.512  11.114  -3.305  0.00  0.00    +0.000 Cl
ATOM     34 CL   UNL     1       2.966   6.247  -5.072  0.00  0.00    +0.000 Cl
ENDBRANCH  26  27
ENDBRANCH  25  26
ENDBRANCH  21  25
ENDBRANCH   6  19
TORSDOF 9
ENDMDL
MODEL       24
REMARK  Name = BDB5234
REMARK  10 active torsions:
REMARK  status: ('A' for Active; 'I' for Inactive)
REMARK    1  A    between atoms: C_2  and  N_15
REMARK    2  A    between atoms: C_3  and  N_11
REMARK    3  A    between atoms: C_4  and  N_10
REMARK    4  A    between atoms: C_6  and  C_7
REMARK    5  A    between atoms: C_12  and  C_13
REMARK    6  A    between atoms: N_15  and  C_16
REMARK    7  A    between atoms: C_16  and  C_17
REMARK    8  A    between atoms: C_16  and  C_19
REMARK    9  A    between atoms: C_17  and  C_18
REMARK   10  A    between atoms: C_19  and  C_20
REMARK                            x       y       z     vdW  Elec       q    Type
REMARK                         _______ _______ _______ _____ _____    ______ ____
ROOT
ATOM      1  C   UNL     1       1.019  -0.885  -0.366  0.00  0.00    +0.000 C 
ATOM      2  C   UNL     1       1.111   0.617  -0.310  0.00  0.00    +0.000 C 
ATOM      3  C   UNL     1      -0.196   1.246   0.359  0.00  0.00    +0.000 C 
ATOM      4  C   UNL     1      -1.521   0.522  -0.033  0.00  0.00    +0.000 C 
ATOM      5  C   UNL     1      -1.418  -0.950   0.361  0.00  0.00    +0.000 C 
ATOM      6  C   UNL     1      -0.101  -1.593  -0.103  0.00  0.00    +0.000 C 
ENDROOT
BRANCH   3   7
ATOM      7  N   UNL     1      -0.200   1.297   1.897  0.00  0.00    +0.000 N 
ATOM      8  C   UNL     1       0.122   0.291   2.928  0.00  0.00    +0.000 C 
ATOM      9  C   UNL     1       0.861  -1.003   2.740  0.00  0.00    +0.000 C 
ATOM     10  O   UNL     1      -0.196   0.576   4.088  0.00  0.00    +0.000 OA
ATOM     11  H   UNL     1      -0.524   2.158   2.268  0.00  0.00    +0.000 HD
ENDBRANCH   3   7
BRANCH   4  12
ATOM     12  N   UNL     1      -1.834   0.566  -1.401  0.00  0.00    +0.000 N 
ATOM     13  H   UNL     1      -1.134   0.066  -1.909  0.00  0.00    +0.000 HD
ATOM     14  H   UNL     1      -1.894   1.548  -1.691  0.00  0.00    +0.000 HD
ATOM     15  H   UNL     1      -2.738   0.112  -1.553  0.00  0.00    +0.000 HD
ENDBRANCH   4  12
BRANCH   6  16
ATOM     16  C   UNL     1       0.009  -3.044  -0.173  0.00  0.00    +0.000 C 
ATOM     17  O   UNL     1       1.087  -3.568  -0.448  0.00  0.00    +0.000 OA
ATOM     18  O   UNL     1      -1.075  -3.815   0.101  0.00  0.00    +0.000 OA
ENDBRANCH   6  16
BRANCH   2  19
ATOM     19  N   UNL     1       1.663   1.049  -1.721  0.00  0.00    +0.000 N 
ATOM     20  H   UNL     1       1.890   2.051  -1.720  0.00  0.00    +0.000 HD
ATOM     21  H   UNL     1       2.548   0.532  -1.771  0.00  0.00    +0.000 HD
BRANCH  19  22
ATOM     22  C   UNL     1       0.974   0.695  -3.026  0.00  0.00    +0.000 C 
BRANCH  22  23
ATOM     23  C   UNL     1      -0.141   1.698  -3.471  0.00  0.00    +0.000 C 
ATOM     24  C   UNL     1       0.413   3.115  -3.729  0.00  0.00    +0.000 C 
ENDBRANCH  22  23
BRANCH  22  25
ATOM     25  C   UNL     1       2.027   0.701  -4.155  0.00  0.00    +0.000 C 
ATOM     26  C   UNL     1       1.408   0.121  -5.450  0.00  0.00    +0.000 C 
ENDBRANCH  22  25
ENDBRANCH  19  22
ENDBRANCH   2  19
TORSDOF 7
ENDMDL
MODEL       25
REMARK  Name = BDB5232
REMARK  11 active torsions:
REMARK  status: ('A' for Active; 'I' for Inactive)
REMARK    1  A    between atoms: C_2  and  N_16
REMARK    2  A    between atoms: C_3  and  N_11
REMARK    3  A    between atoms: C_4  and  N_10
REMARK    4  A    between atoms: C_6  and  C_7
REMARK    5  A    between atoms: C_12  and  C_13
REMARK    6  A    between atoms: C_15  and  N_16
REMARK    7  A    between atoms: C_15  and  C_20
REMARK    8  A    between atoms: N_16  and  C_17
REMARK    9  A    between atoms: C_17  and  C_18
REMARK   10  A    between atoms: C_18  and  C_19
REMARK   11  A    between atoms: C_20  and  C_21
REMARK                            x       y       z     vdW  Elec       q    Type
REMARK                         _______ _______ _______ _____ _____    ______ ____
ROOT
ATOM      1  C   UNL     1       1.097  -0.932  -0.354  0.00  0.00    +0.000 C 
ATOM      2  C   UNL     1       1.254   0.575  -0.286  0.00  0.00    +0.000 C 
ATOM      3  C   UNL     1      -0.075   1.236   0.269  0.00  0.00    +0.000 C 
ATOM      4  C   UNL     1      -1.418   0.575  -0.231  0.00  0.00    +0.000 C 
ATOM      5  C   UNL     1      -1.400  -0.882   0.217  0.00  0.00    +0.000 C 
ATOM      6  C   UNL     1      -0.072  -1.587  -0.161  0.00  0.00    +0.000 C 
ENDROOT
BRANCH   3   7
ATOM      7  N   UNL     1      -0.199   1.314   1.792  0.00  0.00    +0.000 N 
ATOM      8  C   UNL     1       0.066   0.338   2.859  0.00  0.00    +0.000 C 
ATOM      9  C   UNL     1       0.767  -0.983   2.733  0.00  0.00    +0.000 C 
ATOM     10  O   UNL     1      -0.287   0.665   3.998  0.00  0.00    +0.000 OA
ATOM     11  H   UNL     1      -0.552   2.181   2.121  0.00  0.00    +0.000 HD
ENDBRANCH   3   7
BRANCH   4  12
ATOM     12  N   UNL     1      -1.711   0.570  -1.658  0.00  0.00    +0.000 N 
ATOM     13  H   UNL     1      -1.095  -0.049  -2.132  0.00  0.00    +0.000 HD
ATOM     14  H   UNL     1      -1.651   1.528  -2.036  0.00  0.00    +0.000 HD
ATOM     15  H   UNL     1      -2.664   0.213  -1.791  0.00  0.00    +0.000 HD
ENDBRANCH   4  12
BRANCH   6  16
ATOM     16  C   UNL     1      -0.029  -3.042  -0.213  0.00  0.00    +0.000 C 
ATOM     17  O   UNL     1       1.041  -3.619  -0.415  0.00  0.00    +0.000 OA
ATOM     18  O   UNL     1      -1.160  -3.759   0.006  0.00  0.00    +0.000 OA
ENDBRANCH   6  16
BRANCH   2  19
ATOM     19  N   UNL     1       1.758   1.176  -1.638  0.00  0.00    +0.000 N 
ATOM     20  H   UNL     1       1.757   2.197  -1.515  0.00  0.00    +0.000 HD
BRANCH  19  21
ATOM     21  C   UNL     1       3.175   0.784  -1.946  0.00  0.00    +0.000 C 
BRANCH  21  22
ATOM     22  C   UNL     1       3.360  -0.697  -2.360  0.00  0.00    +0.000 C 
ATOM     23  C   UNL     1       4.836  -0.942  -2.723  0.00  0.00    +0.000 C 
ENDBRANCH  21  22
ENDBRANCH  19  21
BRANCH  19  24
ATOM     24  C   UNL     1       0.956   0.854  -2.799  0.00  0.00    +0.000 C 
BRANCH  24  25
ATOM     25  C   UNL     1       1.392   1.604  -4.061  0.00  0.00    +0.000 C 
ATOM     26  C   UNL     1       0.424   1.222  -5.200  0.00  0.00    +0.000 C 
ENDBRANCH  24  25
ENDBRANCH  19  24
ENDBRANCH   2  19
TORSDOF 8
ENDMDL
MODEL       26
REMARK  Name = BDB5021
REMARK  9 active torsions:
REMARK  status: ('A' for Active; 'I' for Inactive)
REMARK    1  A    between atoms: C_3  and  C_4
REMARK    2  A    between atoms: C_7  and  N_18
REMARK    3  A    between atoms: C_8  and  C_9
REMARK    4  A    between atoms: C_9  and  N_10
REMARK    5  A    between atoms: C_9  and  C_14
REMARK    6  A    between atoms: C_11  and  C_12
REMARK    7  A    between atoms: C_14  and  C_15
REMARK    8  A    between atoms: C_15  and  C_16
REMARK    9  A    between atoms: C_16  and  C_17
REMARK                            x       y       z     vdW  Elec       q    Type
REMARK                         _______ _______ _______ _____ _____    ______ ____
ROOT
ATOM      1  C   UNL     1       0.795  -1.069  -0.309  0.00  0.00    +0.000 C 
ATOM      2  C   UNL     1      -1.094   0.347   0.360  0.00  0.00    +0.000 C 
ATOM      3  C   UNL     1      -0.769  -1.078  -0.170  0.00  0.00    +0.000 C 
ATOM      4  C   UNL     1       1.182   0.371   0.074  0.00  0.00    +0.000 C 
ATOM      5  C   UNL     1      -0.026   1.170  -0.347  0.00  0.00    +0.000 C 
ENDROOT
BRANCH   4   6
ATOM      6  N   UNL     1       2.417   0.805  -0.549  0.00  0.00    +0.000 N 
ATOM      7  C   UNL     1       2.599   0.827  -1.951  0.00  0.00    +0.000 C 
ATOM      8  N   UNL     1       3.710   1.220  -2.426  0.00  0.00    +0.000 N 
ATOM      9  N   UNL     1       1.582   0.426  -2.827  0.00  0.00    +0.000 N 
ATOM     10  H   UNL     1       3.194   1.110   0.055  0.00  0.00    +0.000 HD
ATOM     11  H   UNL     1       4.471   1.520  -1.801  0.00  0.00    +0.000 HD
ATOM     12  H   UNL     1       3.848   1.239  -3.447  0.00  0.00    +0.000 HD
ATOM     13  H   UNL     1       0.684   0.108  -2.436  0.00  0.00    +0.000 HD
ATOM     14  H   UNL     1       1.727   0.446  -3.846  0.00  0.00    +0.000 HD
ENDBRANCH   4   6
BRANCH   3  15
ATOM     15  C   UNL     1      -1.323  -1.159  -1.566  0.00  0.00    +0.000 C 
ATOM     16  O   UNL     1      -0.988  -0.324  -2.413  0.00  0.00    +0.000 OA
ATOM     17  O   UNL     1      -2.191  -2.151  -1.895  0.00  0.00    +0.000 OA
ENDBRANCH   3  15
BRANCH   5  18
ATOM     18  C   UNL     1       0.997   2.150   0.431  0.00  0.00    +0.000 C 
BRANCH  18  19
ATOM     19  N   UNL     1       1.037   3.461  -0.530  0.00  0.00    +0.000 N 
ATOM     20  C   UNL     1       2.436   3.684  -0.221  0.00  0.00    +0.000 C 
ATOM     21  C   UNL     1       3.178   3.029   0.926  0.00  0.00    +0.000 C 
ATOM     22  O   UNL     1       3.074   4.444  -0.960  0.00  0.00    +0.000 OA
ATOM     23  H   UNL     1       0.686   3.949  -1.367  0.00  0.00    +0.000 HD
ENDBRANCH  18  19
BRANCH  18  24
ATOM     24  C   UNL     1       0.102   2.694   1.735  0.00  0.00    +0.000 C 
BRANCH  24  25
ATOM     25  C   UNL     1      -0.085   4.152   2.196  0.00  0.00    +0.000 C 
BRANCH  25  26
ATOM     26  C   UNL     1      -0.036   4.217   3.732  0.00  0.00    +0.000 C 
ATOM     27  C   UNL     1      -0.240   5.673   4.189  0.00  0.00    +0.000 C 
ENDBRANCH  25  26
ENDBRANCH  24  25
ENDBRANCH  18  24
ENDBRANCH   5  18
TORSDOF 7
ENDMDL
MODEL       27
REMARK  Name = BDB4948
REMARK  17 active torsions:
REMARK  status: ('A' for Active; 'I' for Inactive)
REMARK    1  A    between atoms: C_1  and  C_6
REMARK    2  A    between atoms: C_2  and  N_12
REMARK    3  A    between atoms: C_3  and  N_16
REMARK    4  A    between atoms: C_9  and  C_11
REMARK    5  A    between atoms: C_13  and  C_14
REMARK    6  A    between atoms: N_17  and  C_18
REMARK    7  A    between atoms: N_17  and  C_19
REMARK    8  A    between atoms: C_18  and  C_22
REMARK    9  A    between atoms: C_19  and  C_20
REMARK   10  A    between atoms: C_20  and  C_21
REMARK   11  A    between atoms: C_22  and  C_23
REMARK   12  A    between atoms: C_23  and  C_24
REMARK   13  A    between atoms: C_24  and  C_25
REMARK   14  A    between atoms: C_25  and  C_26
REMARK   15  A    between atoms: C_26  and  C_27
REMARK   16  A    between atoms: C_27  and  C_28
REMARK   17  A    between atoms: C_28  and  C_29
REMARK                            x       y       z     vdW  Elec       q    Type
REMARK                         _______ _______ _______ _____ _____    ______ ____
ROOT
ATOM      1  C   UNL     1       1.181  -0.703  -0.099  0.00  0.00    +0.000 C 
ATOM      2  C   UNL     1      -1.173   0.691  -0.403  0.00  0.00    +0.000 C 
ATOM      3  C   UNL     1      -1.268  -0.715   0.163  0.00  0.00    +0.000 C 
ATOM      4  C   UNL     1       0.039  -1.395  -0.026  0.00  0.00    +0.000 C 
ATOM      5  O   UNL     1       1.234   0.713   0.007  0.00  0.00    +0.000 OA
ATOM      6  C   UNL     1      -0.021   1.352   0.330  0.00  0.00    +0.000 C 
ENDROOT
BRANCH   2   7
ATOM      7  N   UNL     1      -2.424   1.401  -0.106  0.00  0.00    +0.000 N 
ATOM      8  C   UNL     1      -2.993   1.622   1.196  0.00  0.00    +0.000 C 
ATOM      9  C   UNL     1      -2.353   1.133   2.481  0.00  0.00    +0.000 C 
ATOM     10  O   UNL     1      -4.059   2.243   1.272  0.00  0.00    +0.000 OA
ATOM     11  H   UNL     1      -2.946   1.779  -0.910  0.00  0.00    +0.000 HD
ENDBRANCH   2   7
BRANCH   3  12
ATOM     12  N   UNL     1      -2.341  -1.465  -0.505  0.00  0.00    +0.000 N 
ATOM     13  H   UNL     1      -2.140  -1.514  -1.514  0.00  0.00    +0.000 HD
ATOM     14  H   UNL     1      -3.235  -0.975  -0.360  0.00  0.00    +0.000 HD
ATOM     15  H   UNL     1      -2.399  -2.417  -0.116  0.00  0.00    +0.000 HD
ENDBRANCH   3  12
BRANCH   1  16
ATOM     16  C   UNL     1       2.428  -1.433  -0.336  0.00  0.00    +0.000 C 
ATOM     17  O   UNL     1       3.497  -0.818  -0.424  0.00  0.00    +0.000 OA
ATOM     18  O   UNL     1       2.410  -2.786  -0.458  0.00  0.00    +0.000 OA
ENDBRANCH   1  16
BRANCH   6  19
ATOM     19  C   UNL     1       0.071   2.837  -0.044  0.00  0.00    +0.000 C 
ATOM     20  O   UNL     1      -0.718   3.619   0.494  0.00  0.00    +0.000 OA
ATOM     21  N   UNL     1       0.998   3.369  -0.994  0.00  0.00    +0.000 N 
BRANCH  21  22
ATOM     22  C   UNL     1       1.008   4.799  -1.204  0.00  0.00    +0.000 C 
BRANCH  22  23
ATOM     23  C   UNL     1       2.057   5.182  -2.266  0.00  0.00    +0.000 C 
BRANCH  23  24
ATOM     24  C   UNL     1       2.025   6.697  -2.515  0.00  0.00    +0.000 C 
BRANCH  24  25
ATOM     25  C   UNL     1       3.032   7.034  -3.626  0.00  0.00    +0.000 C 
BRANCH  25  26
ATOM     26  C   UNL     1       3.015   8.545  -3.905  0.00  0.00    +0.000 C 
BRANCH  26  27
ATOM     27  C   UNL     1       4.007   8.857  -5.038  0.00  0.00    +0.000 C 
BRANCH  27  28
ATOM     28  C   UNL     1       4.010  10.367  -5.321  0.00  0.00    +0.000 C 
BRANCH  28  29
ATOM     29  C   UNL     1       5.002  10.669  -6.458  0.00  0.00    +0.000 C 
ATOM     30  C   UNL     1       5.018  12.182  -6.738  0.00  0.00    +0.000 C 
ENDBRANCH  28  29
ENDBRANCH  27  28
ENDBRANCH  26  27
ENDBRANCH  25  26
ENDBRANCH  24  25
ENDBRANCH  23  24
ENDBRANCH  22  23
ENDBRANCH  21  22
BRANCH  21  31
ATOM     31  C   UNL     1       1.891   2.535  -1.770  0.00  0.00    +0.000 C 
BRANCH  31  32
ATOM     32  C   UNL     1       1.153   1.962  -3.004  0.00  0.00    +0.000 C 
ATOM     33  C   UNL     1       2.125   1.097  -3.824  0.00  0.00    +0.000 C 
ENDBRANCH  31  32
ENDBRANCH  21  31
ENDBRANCH   6  19
TORSDOF 14
ENDMDL
MODEL       28
REMARK  Name = BDB4932
REMARK  7 active torsions:
REMARK  status: ('A' for Active; 'I' for Inactive)
REMARK    1  A    between atoms: C_1  and  C_6
REMARK    2  A    between atoms: C_2  and  N_13
REMARK    3  A    between atoms: C_3  and  N_18
REMARK    4  A    between atoms: C_9  and  C_11
REMARK    5  A    between atoms: N_12  and  C_17
REMARK    6  A    between atoms: N_12  and  C_22
REMARK    7  A    between atoms: C_14  and  C_15
REMARK                            x       y       z     vdW  Elec       q    Type
REMARK                         _______ _______ _______ _____ _____    ______ ____
ROOT
ATOM      1  C   UNL     1       1.181  -0.703  -0.099  0.00  0.00    +0.000 C 
ATOM      2  C   UNL     1      -1.173   0.691  -0.403  0.00  0.00    +0.000 C 
ATOM      3  C   UNL     1      -1.268  -0.715   0.163  0.00  0.00    +0.000 C 
ATOM      4  C   UNL     1       0.039  -1.395  -0.026  0.00  0.00    +0.000 C 
ATOM      5  O   UNL     1       1.234   0.713   0.007  0.00  0.00    +0.000 OA
ATOM      6  C   UNL     1      -0.021   1.352   0.330  0.00  0.00    +0.000 C 
ENDROOT
BRANCH   3   7
ATOM      7  N   UNL     1      -2.326  -1.455  -0.498  0.00  0.00    +0.000 N 
ATOM      8  C   UNL     1      -2.333  -1.701  -1.890  0.00  0.00    +0.000 C 
ATOM      9  N   UNL     1      -3.293  -2.358  -2.400  0.00  0.00    +0.000 N 
ATOM     10  N   UNL     1      -1.304  -1.236  -2.720  0.00  0.00    +0.000 N 
ATOM     11  H   UNL     1      -3.104  -1.817   0.071  0.00  0.00    +0.000 HD
ATOM     12  H   UNL     1      -4.060  -2.709  -1.809  0.00  0.00    +0.000 HD
ATOM     13  H   UNL     1      -3.303  -2.540  -3.414  0.00  0.00    +0.000 HD
ATOM     14  H   UNL     1      -0.528  -0.704  -2.300  0.00  0.00    +0.000 HD
ATOM     15  H   UNL     1      -1.320  -1.421  -3.733  0.00  0.00    +0.000 HD
ENDBRANCH   3   7
BRANCH   6  16
ATOM     16  C   UNL     1       0.070   2.833  -0.041  0.00  0.00    +0.000 C 
ATOM     17  O   UNL     1      -0.397   3.663   0.744  0.00  0.00    +0.000 OA
ATOM     18  N   UNL     1       0.658   3.300  -1.255  0.00  0.00    +0.000 N 
ATOM     19  C   UNL     1       0.703   4.714  -1.497  0.00  0.00    +0.000 C 
ATOM     20  C   UNL     1       1.190   2.409  -2.257  0.00  0.00    +0.000 C 
ENDBRANCH   6  16
BRANCH   2  21
ATOM     21  N   UNL     1      -2.424   1.401  -0.106  0.00  0.00    +0.000 N 
ATOM     22  C   UNL     1      -2.993   1.622   1.196  0.00  0.00    +0.000 C 
ATOM     23  C   UNL     1      -2.353   1.133   2.481  0.00  0.00    +0.000 C 
ATOM     24  O   UNL     1      -4.059   2.243   1.272  0.00  0.00    +0.000 OA
ATOM     25  H   UNL     1      -2.946   1.779  -0.910  0.00  0.00    +0.000 HD
ENDBRANCH   2  21
BRANCH   1  26
ATOM     26  C   UNL     1       2.428  -1.433  -0.336  0.00  0.00    +0.000 C 
ATOM     27  O   UNL     1       3.497  -0.818  -0.424  0.00  0.00    +0.000 OA
ATOM     28  O   UNL     1       2.410  -2.786  -0.458  0.00  0.00    +0.000 OA
ENDBRANCH   1  26
TORSDOF 4
ENDMDL
MODEL       29
REMARK  Name = BDB5007
REMARK  10 active torsions:
REMARK  status: ('A' for Active; 'I' for Inactive)
REMARK    1  A    between atoms: C_2  and  O_15
REMARK    2  A    between atoms: C_3  and  N_11
REMARK    3  A    between atoms: C_4  and  N_10
REMARK    4  A    between atoms: C_6  and  C_7
REMARK    5  A    between atoms: C_12  and  C_13
REMARK    6  A    between atoms: O_15  and  C_16
REMARK    7  A    between atoms: C_16  and  C_17
REMARK    8  A    between atoms: C_17  and  C_18
REMARK    9  A    between atoms: C_18  and  C_19
REMARK   10  A    between atoms: C_20  and  C_25
REMARK                            x       y       z     vdW  Elec       q    Type
REMARK                         _______ _______ _______ _____ _____    ______ ____
ROOT
ATOM      1  C   UNL     1       1.083  -0.842  -0.345  0.00  0.00    +0.000 C 
ATOM      2  C   UNL     1       1.150   0.650  -0.281  0.00  0.00    +0.000 C 
ATOM      3  C   UNL     1      -0.084   1.276   0.405  0.00  0.00    +0.000 C 
ATOM      4  C   UNL     1      -1.374   0.651  -0.248  0.00  0.00    +0.000 C 
ATOM      5  C   UNL     1      -1.415  -0.846   0.058  0.00  0.00    +0.000 C 
ATOM      6  C   UNL     1      -0.061  -1.527  -0.229  0.00  0.00    +0.000 C 
ENDROOT
BRANCH   3   7
ATOM      7  N   UNL     1      -0.202   1.264   1.919  0.00  0.00    +0.000 N 
ATOM      8  C   UNL     1      -0.065   0.201   2.920  0.00  0.00    +0.000 C 
ATOM      9  C   UNL     1       0.484  -1.178   2.720  0.00  0.00    +0.000 C 
ATOM     10  O   UNL     1      -0.392   0.496   4.074  0.00  0.00    +0.000 OA
ATOM     11  H   UNL     1      -0.466   2.139   2.301  0.00  0.00    +0.000 HD
ENDBRANCH   3   7
BRANCH   4  12
ATOM     12  N   UNL     1      -1.452   0.781  -1.714  0.00  0.00    +0.000 N 
ATOM     13  H   UNL     1      -0.734   0.233  -2.145  0.00  0.00    +0.000 HD
ATOM     14  H   UNL     1      -1.362   1.769  -1.990  0.00  0.00    +0.000 HD
ATOM     15  H   UNL     1      -2.356   0.417  -2.032  0.00  0.00    +0.000 HD
ENDBRANCH   4  12
BRANCH   6  16
ATOM     16  C   UNL     1       0.019  -2.978  -0.245  0.00  0.00    +0.000 C 
ATOM     17  O   UNL     1       1.121  -3.531  -0.353  0.00  0.00    +0.000 OA
ATOM     18  O   UNL     1      -1.097  -3.718  -0.057  0.00  0.00    +0.000 OA
ENDBRANCH   6  16
BRANCH   2  19
ATOM     19  O   UNL     1       1.048   1.167  -1.639  0.00  0.00    +0.000 OA
BRANCH  19  20
ATOM     20  C   UNL     1       1.783   0.446  -2.629  0.00  0.00    +0.000 C 
BRANCH  20  21
ATOM     21  C   UNL     1       1.420   0.988  -4.069  0.00  0.00    +0.000 C 
BRANCH  21  22
ATOM     22  C   UNL     1       0.029   0.537  -4.673  0.00  0.00    +0.000 C 
BRANCH  22  23
ATOM     23  C   UNL     1       0.058   0.955  -6.138  0.00  0.00    +0.000 A 
ATOM     24  C   UNL     1       0.310   1.670  -8.817  0.00  0.00    +0.000 A 
ATOM     25  C   UNL     1       1.262   2.062  -7.905  0.00  0.00    +0.000 A 
ATOM     26  C   UNL     1       1.142   1.705  -6.568  0.00  0.00    +0.000 A 
ATOM     27  C   UNL     1      -0.920   0.567  -7.053  0.00  0.00    +0.000 A 
ATOM     28  C   UNL     1      -0.799   0.921  -8.394  0.00  0.00    +0.000 A 
BRANCH  24  29
ATOM     29  C   UNL     1       0.490   2.018 -10.226  0.00  0.00    +0.000 A 
ATOM     30  C   UNL     1       0.943   2.674 -12.888  0.00  0.00    +0.000 A 
ATOM     31  C   UNL     1       1.862   3.055 -11.917  0.00  0.00    +0.000 A 
ATOM     32  C   UNL     1       1.643   2.728 -10.589  0.00  0.00    +0.000 A 
ATOM     33  C   UNL     1      -0.422   1.643 -11.189  0.00  0.00    +0.000 A 
ATOM     34  C   UNL     1      -0.199   1.969 -12.526  0.00  0.00    +0.000 A 
ENDBRANCH  24  29
ENDBRANCH  22  23
ENDBRANCH  21  22
ENDBRANCH  20  21
ENDBRANCH  19  20
ENDBRANCH   2  19
TORSDOF 9
ENDMDL
MODEL       30
REMARK  Name = BDB5008
REMARK  5 active torsions:
REMARK  status: ('A' for Active; 'I' for Inactive)
REMARK    1  A    between atoms: C_2  and  O_10
REMARK    2  A    between atoms: C_3  and  N_11
REMARK    3  A    between atoms: C_4  and  N_15
REMARK    4  A    between atoms: C_6  and  C_7
REMARK    5  A    between atoms: C_12  and  C_13
REMARK                            x       y       z     vdW  Elec       q    Type
REMARK                         _______ _______ _______ _____ _____    ______ ____
ROOT
ATOM      1  C   UNL     1       1.370  -0.831   0.379  0.00  0.00    +0.000 C 
ATOM      2  C   UNL     1       1.394   0.687   0.388  0.00  0.00    +0.000 C 
ATOM      3  C   UNL     1      -0.017   1.268   0.548  0.00  0.00    +0.000 C 
ATOM      4  C   UNL     1      -1.058   0.533  -0.415  0.00  0.00    +0.000 C 
ATOM      5  C   UNL     1      -1.115  -0.936  -0.045  0.00  0.00    +0.000 C 
ATOM      6  C   UNL     1       0.253  -1.556   0.157  0.00  0.00    +0.000 C 
ENDROOT
BRANCH   4   7
ATOM      7  N   UNL     1      -0.944   0.732  -1.964  0.00  0.00    +0.000 N 
ATOM      8  C   UNL     1      -0.074   0.076  -3.012  0.00  0.00    +0.000 C 
ATOM      9  N   UNL     1      -0.187   0.493  -4.209  0.00  0.00    +0.000 N 
ATOM     10  N   UNL     1       0.884  -0.975  -2.813  0.00  0.00    +0.000 N 
ATOM     11  H   UNL     1      -1.455   1.550  -2.319  0.00  0.00    +0.000 HD
ATOM     12  H   UNL     1      -0.832   1.214  -4.425  0.00  0.00    +0.000 HD
ATOM     13  H   UNL     1       0.371   0.086  -4.927  0.00  0.00    +0.000 HD
ATOM     14  H   UNL     1       1.068  -1.345  -1.932  0.00  0.00    +0.000 HD
ATOM     15  H   UNL     1       1.432  -1.311  -3.615  0.00  0.00    +0.000 HD
ENDBRANCH   4   7
BRANCH   3  16
ATOM     16  N   UNL     1      -0.482   1.334   2.013  0.00  0.00    +0.000 N 
ATOM     17  C   UNL     1      -0.411   0.376   3.138  0.00  0.00    +0.000 C 
ATOM     18  C   UNL     1      -0.096  -1.086   3.093  0.00  0.00    +0.000 C 
ATOM     19  O   UNL     1      -0.675   0.831   4.256  0.00  0.00    +0.000 OA
ATOM     20  H   UNL     1      -0.799   2.234   2.285  0.00  0.00    +0.000 HD
ENDBRANCH   3  16
BRANCH   6  21
ATOM     21  C   UNL     1       0.337  -3.009   0.168  0.00  0.00    +0.000 C 
ATOM     22  O   UNL     1       1.427  -3.567   0.329  0.00  0.00    +0.000 OA
ATOM     23  O   UNL     1      -0.792  -3.749   0.008  0.00  0.00    +0.000 OA
ENDBRANCH   6  21
BRANCH   2  24
ATOM     24  O   UNL     1       1.972   1.144  -0.830  0.00  0.00    +0.000 OA
ATOM     25  H   UNL     1       1.438   0.905  -1.562  0.00  0.00    +0.000 HD
ENDBRANCH   2  24
TORSDOF 4
ENDMDL
MODEL       31
REMARK  Name = BDB5228
REMARK  9 active torsions:
REMARK  status: ('A' for Active; 'I' for Inactive)
REMARK    1  A    between atoms: C_2  and  N_7
REMARK    2  A    between atoms: C_3  and  N_15
REMARK    3  A    between atoms: C_4  and  N_14
REMARK    4  A    between atoms: C_6  and  C_11
REMARK    5  A    between atoms: N_7  and  C_8
REMARK    6  A    between atoms: N_7  and  C_9
REMARK    7  A    between atoms: C_9  and  C_10
REMARK    8  A    between atoms: C_10  and  C_19
REMARK    9  A    between atoms: C_16  and  C_17
REMARK                            x       y       z     vdW  Elec       q    Type
REMARK                         _______ _______ _______ _____ _____    ______ ____
ROOT
ATOM      1  C   UNL     1       1.164  -0.864  -0.279  0.00  0.00    +0.000 C 
ATOM      2  C   UNL     1       1.272   0.630  -0.240  0.00  0.00    +0.000 C 
ATOM      3  C   UNL     1      -0.077   1.260   0.351  0.00  0.00    +0.000 C 
ATOM      4  C   UNL     1      -1.374   0.649  -0.243  0.00  0.00    +0.000 C 
ATOM      5  C   UNL     1      -1.391  -0.840   0.075  0.00  0.00    +0.000 C 
ATOM      6  C   UNL     1      -0.008  -1.528  -0.182  0.00  0.00    +0.000 C 
ENDROOT
BRANCH   3   7
ATOM      7  N   UNL     1      -0.202   1.255   1.890  0.00  0.00    +0.000 N 
ATOM      8  C   UNL     1      -0.106   0.188   2.920  0.00  0.00    +0.000 C 
ATOM      9  C   UNL     1       0.389  -1.219   2.758  0.00  0.00    +0.000 C 
ATOM     10  O   UNL     1      -0.421   0.515   4.069  0.00  0.00    +0.000 OA
ATOM     11  H   UNL     1      -0.424   2.143   2.269  0.00  0.00    +0.000 HD
ENDBRANCH   3   7
BRANCH   4  12
ATOM     12  N   UNL     1      -1.500   0.765  -1.646  0.00  0.00    +0.000 N 
ATOM     13  H   UNL     1      -0.856   0.194  -2.029  0.00  0.00    +0.000 HD
ATOM     14  H   UNL     1      -1.365   1.741  -1.948  0.00  0.00    +0.000 HD
ATOM     15  H   UNL     1      -2.421   0.431  -1.938  0.00  0.00    +0.000 HD
ENDBRANCH   4  12
BRANCH   6  16
ATOM     16  C   UNL     1       0.051  -2.978  -0.178  0.00  0.00    +0.000 C 
ATOM     17  O   UNL     1       1.146  -3.546  -0.258  0.00  0.00    +0.000 OA
ATOM     18  O   UNL     1      -1.081  -3.700   0.001  0.00  0.00    +0.000 OA
ENDBRANCH   6  16
BRANCH   2  19
ATOM     19  N   UNL     1       1.757   1.087  -1.658  0.00  0.00    +0.000 NA
ATOM     20  C   UNL     1       1.812   2.555  -1.813  0.00  0.00    +0.000 C 
BRANCH  19  21
ATOM     21  C   UNL     1       1.257   0.367  -2.872  0.00  0.00    +0.000 C 
BRANCH  21  22
ATOM     22  C   UNL     1       0.998   1.298  -4.092  0.00  0.00    +0.000 C 
BRANCH  22  23
ATOM     23  C   UNL     1      -0.114   0.704  -4.964  0.00  0.00    +0.000 A 
ATOM     24  C   UNL     1      -2.180  -0.329  -6.534  0.00  0.00    +0.000 A 
ATOM     25  C   UNL     1      -2.101  -0.655  -5.191  0.00  0.00    +0.000 A 
ATOM     26  C   UNL     1      -1.064  -0.139  -4.415  0.00  0.00    +0.000 A 
ATOM     27  C   UNL     1      -0.198   1.032  -6.320  0.00  0.00    +0.000 A 
ATOM     28  C   UNL     1      -1.222   0.513  -7.098  0.00  0.00    +0.000 A 
ENDBRANCH  22  23
ENDBRANCH  21  22
ENDBRANCH  19  21
ENDBRANCH   2  19
TORSDOF 7
ENDMDL
MODEL       32
REMARK  Name = BDB5219
REMARK  9 active torsions:
REMARK  status: ('A' for Active; 'I' for Inactive)
REMARK    1  A    between atoms: C_2  and  O_12
REMARK    2  A    between atoms: C_3  and  N_9
REMARK    3  A    between atoms: C_4  and  N_13
REMARK    4  A    between atoms: C_6  and  C_7
REMARK    5  A    between atoms: N_9  and  C_10
REMARK    6  A    between atoms: C_10  and  C_18
REMARK    7  A    between atoms: O_12  and  C_15
REMARK    8  A    between atoms: C_15  and  C_16
REMARK    9  A    between atoms: C_16  and  C_17
REMARK                            x       y       z     vdW  Elec       q    Type
REMARK                         _______ _______ _______ _____ _____    ______ ____
ROOT
ATOM      1  C   UNL     1       1.120  -0.847  -0.330  0.00  0.00    +0.000 C 
ATOM      2  C   UNL     1       1.202   0.655  -0.224  0.00  0.00    +0.000 C 
ATOM      3  C   UNL     1      -0.135   1.263   0.340  0.00  0.00    +0.000 C 
ATOM      4  C   UNL     1      -1.409   0.650  -0.302  0.00  0.00    +0.000 C 
ATOM      5  C   UNL     1      -1.403  -0.847   0.050  0.00  0.00    +0.000 C 
ATOM      6  C   UNL     1      -0.046  -1.527  -0.220  0.00  0.00    +0.000 C 
ENDROOT
BRANCH   4   7
ATOM      7  N   UNL     1      -1.550   0.795  -1.745  0.00  0.00    +0.000 N 
ATOM      8  H   UNL     1      -0.865   0.272  -2.202  0.00  0.00    +0.000 HD
ATOM      9  H   UNL     1      -1.487   1.787  -2.010  0.00  0.00    +0.000 HD
ATOM     10  H   UNL     1      -2.466   0.422  -2.024  0.00  0.00    +0.000 HD
ENDBRANCH   4   7
BRANCH   6  11
ATOM     11  C   UNL     1       0.021  -2.980  -0.263  0.00  0.00    +0.000 C 
ATOM     12  O   UNL     1       1.102  -3.548  -0.399  0.00  0.00    +0.000 OA
ATOM     13  O   UNL     1      -1.116  -3.706  -0.090  0.00  0.00    +0.000 OA
ENDBRANCH   6  11
BRANCH   3  14
ATOM     14  N   UNL     1      -0.321   1.078   1.808  0.00  0.00    +0.000 NA
BRANCH  14  15
ATOM     15  C   UNL     1       0.120   0.021   2.665  0.00  0.00    +0.000 C 
ATOM     16  O   UNL     1       0.783  -0.936   2.266  0.00  0.00    +0.000 OA
BRANCH  15  17
ATOM     17  C   UNL     1      -0.278   0.062   4.107  0.00  0.00    +0.000 C 
ATOM     18  F   UNL     1       0.728   0.657   4.836  0.00  0.00    +0.000 F 
ATOM     19  F   UNL     1      -1.440   0.794   4.245  0.00  0.00    +0.000 F 
ATOM     20  F   UNL     1      -0.480  -1.224   4.568  0.00  0.00    +0.000 F 
ENDBRANCH  15  17
ENDBRANCH  14  15
ENDBRANCH   3  14
BRANCH   2  21
ATOM     21  O   UNL     1       1.603   1.241  -1.514  0.00  0.00    +0.000 OA
BRANCH  21  22
ATOM     22  C   UNL     1       1.450   0.402  -2.660  0.00  0.00    +0.000 C 
BRANCH  22  23
ATOM     23  C   UNL     1       1.052   1.306  -3.850  0.00  0.00    +0.000 C 
ATOM     24  C   UNL     1       0.564   0.441  -5.025  0.00  0.00    +0.000 C 
ENDBRANCH  22  23
ENDBRANCH  21  22
ENDBRANCH   2  21
TORSDOF 8
ENDMDL
MODEL       33
REMARK  Name = BDB4977
REMARK  7 active torsions:
REMARK  status: ('A' for Active; 'I' for Inactive)
REMARK    1  A    between atoms: C_1  and  C_16
REMARK    2  A    between atoms: C_2  and  N_11
REMARK    3  A    between atoms: C_3  and  N_10
REMARK    4  A    between atoms: C_5  and  C_7
REMARK    5  A    between atoms: C_12  and  C_13
REMARK    6  A    between atoms: C_17  and  C_23
REMARK    7  A    between atoms: C_20  and  C_22
REMARK                            x       y       z     vdW  Elec       q    Type
REMARK                         _______ _______ _______ _____ _____    ______ ____
ROOT
ATOM      1  C   UNL     1       1.098  -0.415   0.358  0.00  0.00    +0.000 C 
ATOM      2  C   UNL     1       0.071  -1.275  -0.487  0.00  0.00    +0.000 C 
ATOM      3  C   UNL     1      -1.359  -0.843  -0.145  0.00  0.00    +0.000 C 
ATOM      4  C   UNL     1      -1.447   0.661  -0.220  0.00  0.00    +0.000 C 
ATOM      5  C   UNL     1      -0.362   1.455  -0.086  0.00  0.00    +0.000 C 
ATOM      6  O   UNL     1       0.960   0.973   0.117  0.00  0.00    +0.000 OA
ENDROOT
BRANCH   1   8
ATOM      7  O   UNL     1       1.509  -1.829   2.219  0.00  0.00    +0.000 OA
ATOM      8  C   UNL     1       1.024  -0.743   1.885  0.00  0.00    +0.000 C 
ATOM      9  C   UNL     1      -0.102   1.456   2.959  0.00  0.00    +0.000 C 
ATOM     10  C   UNL     1       0.225   1.975   4.370  0.00  0.00    +0.000 C 
ATOM     11  C   UNL     1      -0.094   0.702   5.154  0.00  0.00    +0.000 C 
ATOM     12  C   UNL     1       0.765  -0.289   4.351  0.00  0.00    +0.000 C 
ATOM     13  N   UNL     1       0.524   0.114   2.994  0.00  0.00    +0.000 N 
ATOM     14  C   UNL     1       2.250  -0.029   4.671  0.00  0.00    +0.000 C 
ATOM     15  C   UNL     1      -1.653   1.378   2.925  0.00  0.00    +0.000 C 
ENDBRANCH   1   8
BRANCH   2  16
ATOM     16  N   UNL     1       0.247  -1.333  -2.002  0.00  0.00    +0.000 N 
ATOM     17  C   UNL     1       0.666   1.142  -2.820  0.00  0.00    +0.000 C 
ATOM     18  C   UNL     1       0.385  -0.304  -3.026  0.00  0.00    +0.000 C 
ATOM     19  O   UNL     1       0.321  -0.689  -4.199  0.00  0.00    +0.000 OA
ATOM     20  H   UNL     1       0.197  -2.254  -2.371  0.00  0.00    +0.000 HD
ENDBRANCH   2  16
BRANCH   3  21
ATOM     21  N   UNL     1      -1.782  -1.323   1.191  0.00  0.00    +0.000 N 
ATOM     22  H   UNL     1      -1.209  -0.966   1.907  0.00  0.00    +0.000 HD
ATOM     23  H   UNL     1      -1.729  -2.350   1.206  0.00  0.00    +0.000 HD
ATOM     24  H   UNL     1      -2.750  -1.031   1.365  0.00  0.00    +0.000 HD
ENDBRANCH   3  21
BRANCH   5  25
ATOM     25  C   UNL     1      -0.503   2.903  -0.209  0.00  0.00    +0.000 C 
ATOM     26  O   UNL     1       0.510   3.616  -0.140  0.00  0.00    +0.000 OA
ATOM     27  O   UNL     1      -1.714   3.467  -0.393  0.00  0.00    +0.000 OA
ENDBRANCH   5  25
TORSDOF 4
ENDMDL
MODEL       34
REMARK  Name = BDB4983
REMARK  8 active torsions:
REMARK  status: ('A' for Active; 'I' for Inactive)
REMARK    1  A    between atoms: C_2  and  O_15
REMARK    2  A    between atoms: C_3  and  N_11
REMARK    3  A    between atoms: C_4  and  N_10
REMARK    4  A    between atoms: C_6  and  C_7
REMARK    5  A    between atoms: C_12  and  C_13
REMARK    6  A    between atoms: O_15  and  C_16
REMARK    7  A    between atoms: C_16  and  C_17
REMARK    8  A    between atoms: C_17  and  C_18
REMARK                            x       y       z     vdW  Elec       q    Type
REMARK                         _______ _______ _______ _____ _____    ______ ____
ROOT
ATOM      1  C   UNL     1       1.118  -0.865  -0.347  0.00  0.00    +0.000 C 
ATOM      2  C   UNL     1       1.228   0.635  -0.208  0.00  0.00    +0.000 C 
ATOM      3  C   UNL     1      -0.080   1.277   0.379  0.00  0.00    +0.000 C 
ATOM      4  C   UNL     1      -1.373   0.658  -0.247  0.00  0.00    +0.000 C 
ATOM      5  C   UNL     1      -1.390  -0.835   0.105  0.00  0.00    +0.000 C 
ATOM      6  C   UNL     1      -0.057  -1.533  -0.226  0.00  0.00    +0.000 C 
ENDROOT
BRANCH   3   7
ATOM      7  N   UNL     1      -0.271   1.260   1.885  0.00  0.00    +0.000 N 
ATOM      8  C   UNL     1       0.035   0.257   2.904  0.00  0.00    +0.000 C 
ATOM      9  C   UNL     1       0.771  -1.034   2.713  0.00  0.00    +0.000 C 
ATOM     10  O   UNL     1      -0.329   0.520   4.056  0.00  0.00    +0.000 OA
ATOM     11  H   UNL     1      -0.685   2.088   2.245  0.00  0.00    +0.000 HD
ENDBRANCH   3   7
BRANCH   4  12
ATOM     12  N   UNL     1      -1.510   0.780  -1.695  0.00  0.00    +0.000 N 
ATOM     13  H   UNL     1      -0.824   0.245  -2.144  0.00  0.00    +0.000 HD
ATOM     14  H   UNL     1      -1.441   1.767  -1.975  0.00  0.00    +0.000 HD
ATOM     15  H   UNL     1      -2.428   0.408  -1.971  0.00  0.00    +0.000 HD
ENDBRANCH   4  12
BRANCH   6  16
ATOM     16  C   UNL     1      -0.005  -2.988  -0.318  0.00  0.00    +0.000 C 
ATOM     17  O   UNL     1       1.066  -3.562  -0.495  0.00  0.00    +0.000 OA
ATOM     18  O   UNL     1      -1.147  -3.708  -0.149  0.00  0.00    +0.000 OA
ENDBRANCH   6  16
BRANCH   2  19
ATOM     19  O   UNL     1       1.552   1.242  -1.503  0.00  0.00    +0.000 OA
BRANCH  19  20
ATOM     20  C   UNL     1       1.502   0.374  -2.639  0.00  0.00    +0.000 C 
BRANCH  20  21
ATOM     21  C   UNL     1       1.067   1.251  -3.840  0.00  0.00    +0.000 C 
ATOM     22  C   UNL     1       0.612   0.366  -5.011  0.00  0.00    +0.000 C 
ENDBRANCH  20  21
ENDBRANCH  19  20
ENDBRANCH   2  19
TORSDOF 6
ENDMDL
MODEL       35
REMARK  Name = BDB5222
REMARK  8 active torsions:
REMARK  status: ('A' for Active; 'I' for Inactive)
REMARK    1  A    between atoms: C_2  and  O_10
REMARK    2  A    between atoms: C_3  and  N_9
REMARK    3  A    between atoms: C_4  and  N_18
REMARK    4  A    between atoms: C_6  and  C_7
REMARK    5  A    between atoms: O_10  and  C_12
REMARK    6  A    between atoms: C_12  and  C_13
REMARK    7  A    between atoms: C_13  and  C_14
REMARK    8  A    between atoms: C_15  and  C_16
REMARK                            x       y       z     vdW  Elec       q    Type
REMARK                         _______ _______ _______ _____ _____    ______ ____
ROOT
ATOM      1  C   UNL     1       1.175  -0.974  -0.224  0.00  0.00    +0.000 C 
ATOM      2  C   UNL     1       1.195   0.529  -0.361  0.00  0.00    +0.000 C 
ATOM      3  C   UNL     1      -0.109   1.188   0.218  0.00  0.00    +0.000 C 
ATOM      4  C   UNL     1      -1.359   0.433  -0.341  0.00  0.00    +0.000 C 
ATOM      5  C   UNL     1      -1.329  -1.016   0.162  0.00  0.00    +0.000 C 
ATOM      6  C   UNL     1       0.048  -1.679  -0.026  0.00  0.00    +0.000 C 
ENDROOT
BRANCH   4   7
ATOM      7  N   UNL     1      -1.473   0.425  -1.835  0.00  0.00    +0.000 N 
ATOM      8  C   UNL     1      -0.851  -0.624  -2.599  0.00  0.00    +0.000 C 
ATOM      9  N   UNL     1      -0.737  -0.530  -3.856  0.00  0.00    +0.000 N 
ATOM     10  H   UNL     1      -1.601   1.327  -2.314  0.00  0.00    +0.000 HD
ATOM     11  H   UNL     1      -1.092   0.265  -4.326  0.00  0.00    +0.000 HD
ATOM     12  H   UNL     1      -0.293  -1.257  -4.369  0.00  0.00    +0.000 HD
ENDBRANCH   4   7
BRANCH   3  13
ATOM     13  N   UNL     1      -0.230   1.347   1.740  0.00  0.00    +0.000 N 
ATOM     14  C   UNL     1       0.026   0.433   2.866  0.00  0.00    +0.000 C 
ATOM     15  C   UNL     1       0.708  -0.899   2.826  0.00  0.00    +0.000 C 
ATOM     16  O   UNL     1      -0.315   0.836   3.984  0.00  0.00    +0.000 OA
ATOM     17  H   UNL     1      -0.565   2.238   2.022  0.00  0.00    +0.000 HD
ENDBRANCH   3  13
BRANCH   6  18
ATOM     18  C   UNL     1       0.152  -3.127   0.085  0.00  0.00    +0.000 C 
ATOM     19  O   UNL     1       1.255  -3.675  -0.015  0.00  0.00    +0.000 OA
ATOM     20  O   UNL     1      -0.961  -3.871   0.300  0.00  0.00    +0.000 OA
ENDBRANCH   6  18
BRANCH   2  21
ATOM     21  O   UNL     1       1.323   0.780  -1.796  0.00  0.00    +0.000 OA
BRANCH  21  22
ATOM     22  C   UNL     1       1.523   2.183  -2.077  0.00  0.00    +0.000 C 
BRANCH  22  23
ATOM     23  C   UNL     1       2.061   2.401  -3.518  0.00  0.00    +0.000 C 
ATOM     24  C   UNL     1       1.029   1.980  -4.576  0.00  0.00    +0.000 C 
ENDBRANCH  22  23
ENDBRANCH  21  22
ENDBRANCH   2  21
TORSDOF 6
ENDMDL
MODEL       36
REMARK  Name = BDB5244
REMARK  9 active torsions:
REMARK  status: ('A' for Active; 'I' for Inactive)
REMARK    1  A    between atoms: C_1  and  N_17
REMARK    2  A    between atoms: C_2  and  N_21
REMARK    3  A    between atoms: C_4  and  C_7
REMARK    4  A    between atoms: C_10  and  C_12
REMARK    5  A    between atoms: C_12  and  C_13
REMARK    6  A    between atoms: C_12  and  C_14
REMARK    7  A    between atoms: C_13  and  C_16
REMARK    8  A    between atoms: C_14  and  C_15
REMARK    9  A    between atoms: C_18  and  C_19
REMARK                            x       y       z     vdW  Elec       q    Type
REMARK                         _______ _______ _______ _____ _____    ______ ____
ROOT
ATOM      1  C   UNL     1       1.213  -0.670   0.322  0.00  0.00    +0.000 C 
ATOM      2  C   UNL     1       0.024  -1.368  -0.307  0.00  0.00    +0.000 C 
ATOM      3  C   UNL     1      -1.243  -0.704   0.214  0.00  0.00    +0.000 C 
ATOM      4  C   UNL     1      -1.150   0.777  -0.028  0.00  0.00    +0.000 C 
ATOM      5  N   UNL     1      -0.021   1.365  -0.134  0.00  0.00    +0.000 NA
ATOM      6  N   UNL     1       1.159   0.722  -0.018  0.00  0.00    +0.000 N 
ATOM      7  C   UNL     1       2.351   1.435  -0.187  0.00  0.00    +0.000 C 
ATOM      8  O   UNL     1       3.436   0.865  -0.024  0.00  0.00    +0.000 OA
ENDROOT
BRANCH   2   9
ATOM      9  N   UNL     1       0.026  -2.776   0.038  0.00  0.00    +0.000 N 
ATOM     10  C   UNL     1      -0.031  -3.236   1.374  0.00  0.00    +0.000 C 
ATOM     11  N   UNL     1      -0.093  -2.344   2.452  0.00  0.00    +0.000 N 
ATOM     12  N   UNL     1      -0.025  -4.486   1.601  0.00  0.00    +0.000 N 
ATOM     13  H   UNL     1       0.071  -3.471  -0.722  0.00  0.00    +0.000 HD
ATOM     14  H   UNL     1      -0.098  -1.332   2.262  0.00  0.00    +0.000 HD
ATOM     15  H   UNL     1      -0.134  -2.692   3.421  0.00  0.00    +0.000 HD
ATOM     16  H   UNL     1       0.021  -5.160   0.823  0.00  0.00    +0.000 HD
ATOM     17  H   UNL     1      -0.066  -4.827   2.572  0.00  0.00    +0.000 HD
ENDBRANCH   2   9
BRANCH   1  18
ATOM     18  N   UNL     1       2.459  -1.255  -0.168  0.00  0.00    +0.000 N 
ATOM     19  C   UNL     1       2.986  -1.066  -1.480  0.00  0.00    +0.000 C 
ATOM     20  C   UNL     1       2.269  -0.260  -2.539  0.00  0.00    +0.000 C 
ATOM     21  O   UNL     1       4.069  -1.590  -1.766  0.00  0.00    +0.000 OA
ATOM     22  H   UNL     1       2.996  -1.848   0.482  0.00  0.00    +0.000 HD
ENDBRANCH   1  18
BRANCH   4  23
ATOM     23  C   UNL     1      -2.379   1.562  -0.133  0.00  0.00    +0.000 C 
ATOM     24  O   UNL     1      -2.319   2.781  -0.328  0.00  0.00    +0.000 OA
ATOM     25  O   UNL     1      -3.587   0.951  -0.015  0.00  0.00    +0.000 OA
ENDBRANCH   4  23
BRANCH   7  26
ATOM     26  C   UNL     1       2.321   2.893  -0.556  0.00  0.00    +0.000 C 
BRANCH  26  27
ATOM     27  C   UNL     1       3.751   3.470  -0.486  0.00  0.00    +0.000 C 
ATOM     28  C   UNL     1       3.722   4.980  -0.801  0.00  0.00    +0.000 C 
ENDBRANCH  26  27
BRANCH  26  29
ATOM     29  C   UNL     1       1.752   3.054  -1.985  0.00  0.00    +0.000 C 
ATOM     30  C   UNL     1       2.599   2.240  -2.986  0.00  0.00    +0.000 C 
ENDBRANCH  26  29
ENDBRANCH   7  26
TORSDOF 6
ENDMDL
MODEL       37
REMARK  Name = BDB4986
REMARK  11 active torsions:
REMARK  status: ('A' for Active; 'I' for Inactive)
REMARK    1  A    between atoms: C_2  and  O_15
REMARK    2  A    between atoms: C_3  and  N_11
REMARK    3  A    between atoms: C_4  and  N_10
REMARK    4  A    between atoms: C_6  and  C_7
REMARK    5  A    between atoms: C_12  and  C_13
REMARK    6  A    between atoms: O_15  and  C_16
REMARK    7  A    between atoms: C_16  and  C_17
REMARK    8  A    between atoms: C_17  and  C_18
REMARK    9  A    between atoms: C_18  and  C_19
REMARK   10  A    between atoms: C_19  and  C_20
REMARK   11  A    between atoms: C_20  and  C_21
REMARK                            x       y       z     vdW  Elec       q    Type
REMARK                         _______ _______ _______ _____ _____    ______ ____
ROOT
ATOM      1  C   UNL     1       1.038  -0.851  -0.412  0.00  0.00    +0.000 C 
ATOM      2  C   UNL     1       1.095   0.645  -0.351  0.00  0.00    +0.000 C 
ATOM      3  C   UNL     1      -0.122   1.280   0.380  0.00  0.00    +0.000 C 
ATOM      4  C   UNL     1      -1.418   0.645  -0.228  0.00  0.00    +0.000 C 
ATOM      5  C   UNL     1      -1.440  -0.851   0.104  0.00  0.00    +0.000 C 
ATOM      6  C   UNL     1      -0.123  -1.541  -0.236  0.00  0.00    +0.000 C 
ENDROOT
BRANCH   3   7
ATOM      7  N   UNL     1      -0.230   1.266   1.905  0.00  0.00    +0.000 N 
ATOM      8  C   UNL     1       0.053   0.235   2.900  0.00  0.00    +0.000 C 
ATOM      9  C   UNL     1       0.764  -1.060   2.676  0.00  0.00    +0.000 C 
ATOM     10  O   UNL     1      -0.293   0.485   4.062  0.00  0.00    +0.000 OA
ATOM     11  H   UNL     1      -0.598   2.105   2.288  0.00  0.00    +0.000 HD
ENDBRANCH   3   7
BRANCH   4  12
ATOM     12  N   UNL     1      -1.519   0.780  -1.702  0.00  0.00    +0.000 N 
ATOM     13  H   UNL     1      -0.796   0.241  -2.164  0.00  0.00    +0.000 HD
ATOM     14  H   UNL     1      -1.447   1.772  -1.967  0.00  0.00    +0.000 HD
ATOM     15  H   UNL     1      -2.425   0.411  -2.006  0.00  0.00    +0.000 HD
ENDBRANCH   4  12
BRANCH   6  16
ATOM     16  C   UNL     1      -0.033  -2.995  -0.293  0.00  0.00    +0.000 C 
ATOM     17  O   UNL     1       1.037  -3.551  -0.477  0.00  0.00    +0.000 OA
ATOM     18  O   UNL     1      -1.167  -3.731  -0.104  0.00  0.00    +0.000 OA
ENDBRANCH   6  16
BRANCH   2  19
ATOM     19  O   UNL     1       0.992   1.135  -1.712  0.00  0.00    +0.000 OA
BRANCH  19  20
ATOM     20  C   UNL     1       1.948   0.586  -2.618  0.00  0.00    +0.000 C 
BRANCH  20  21
ATOM     21  C   UNL     1       1.629   1.092  -4.069  0.00  0.00    +0.000 C 
BRANCH  21  22
ATOM     22  C   UNL     1       0.349   0.437  -4.690  0.00  0.00    +0.000 C 
BRANCH  22  23
ATOM     23  C   UNL     1       0.114   1.051  -6.105  0.00  0.00    +0.000 C 
BRANCH  23  24
ATOM     24  C   UNL     1      -1.005   0.307  -6.877  0.00  0.00    +0.000 C 
ATOM     25  C   UNL     1      -1.204   0.971  -8.263  0.00  0.00    +0.000 C 
ENDBRANCH  23  24
ENDBRANCH  22  23
ENDBRANCH  21  22
ENDBRANCH  20  21
ENDBRANCH  19  20
ENDBRANCH   2  19
TORSDOF 9
ENDMDL
MODEL       38
REMARK  Name = BDB5233
REMARK  8 active torsions:
REMARK  status: ('A' for Active; 'I' for Inactive)
REMARK    1  A    between atoms: C_2  and  N_15
REMARK    2  A    between atoms: C_3  and  N_11
REMARK    3  A    between atoms: C_4  and  N_10
REMARK    4  A    between atoms: C_6  and  C_7
REMARK    5  A    between atoms: C_12  and  C_13
REMARK    6  A    between atoms: N_15  and  C_16
REMARK    7  A    between atoms: C_16  and  C_17
REMARK    8  A    between atoms: C_17  and  C_18
REMARK                            x       y       z     vdW  Elec       q    Type
REMARK                         _______ _______ _______ _____ _____    ______ ____
ROOT
ATOM      1  C   UNL     1       1.119  -0.907  -0.336  0.00  0.00    +0.000 C 
ATOM      2  C   UNL     1       1.260   0.594  -0.241  0.00  0.00    +0.000 C 
ATOM      3  C   UNL     1      -0.077   1.251   0.290  0.00  0.00    +0.000 C 
ATOM      4  C   UNL     1      -1.413   0.599  -0.240  0.00  0.00    +0.000 C 
ATOM      5  C   UNL     1      -1.394  -0.867   0.188  0.00  0.00    +0.000 C 
ATOM      6  C   UNL     1      -0.052  -1.566  -0.175  0.00  0.00    +0.000 C 
ENDROOT
BRANCH   3   7
ATOM      7  N   UNL     1      -0.232   1.296   1.813  0.00  0.00    +0.000 N 
ATOM      8  C   UNL     1       0.043   0.308   2.870  0.00  0.00    +0.000 C 
ATOM      9  C   UNL     1       0.764  -1.002   2.732  0.00  0.00    +0.000 C 
ATOM     10  O   UNL     1      -0.326   0.611   4.010  0.00  0.00    +0.000 OA
ATOM     11  H   UNL     1      -0.611   2.148   2.151  0.00  0.00    +0.000 HD
ENDBRANCH   3   7
BRANCH   4  12
ATOM     12  N   UNL     1      -1.701   0.623  -1.672  0.00  0.00    +0.000 N 
ATOM     13  H   UNL     1      -1.096   0.009  -2.156  0.00  0.00    +0.000 HD
ATOM     14  H   UNL     1      -1.630   1.587  -2.034  0.00  0.00    +0.000 HD
ATOM     15  H   UNL     1      -2.657   0.277  -1.814  0.00  0.00    +0.000 HD
ENDBRANCH   4  12
BRANCH   6  16
ATOM     16  C   UNL     1      -0.007  -3.020  -0.242  0.00  0.00    +0.000 C 
ATOM     17  O   UNL     1       1.068  -3.595  -0.428  0.00  0.00    +0.000 OA
ATOM     18  O   UNL     1      -1.141  -3.740  -0.050  0.00  0.00    +0.000 OA
ENDBRANCH   6  16
BRANCH   2  19
ATOM     19  N   UNL     1       1.799   1.118  -1.575  0.00  0.00    +0.000 N 
ATOM     20  H   UNL     1       1.876   2.143  -1.518  0.00  0.00    +0.000 HD
ATOM     21  H   UNL     1       2.739   0.724  -1.715  0.00  0.00    +0.000 HD
BRANCH  19  22
ATOM     22  C   UNL     1       1.023   0.768  -2.735  0.00  0.00    +0.000 C 
BRANCH  22  23
ATOM     23  C   UNL     1       1.587   1.341  -4.030  0.00  0.00    +0.000 C 
ATOM     24  C   UNL     1       0.634   0.938  -5.176  0.00  0.00    +0.000 C 
ENDBRANCH  22  23
ENDBRANCH  19  22
ENDBRANCH   2  19
TORSDOF 6
ENDMDL
MODEL       39
REMARK  Name = BDB5242
REMARK  8 active torsions:
REMARK  status: ('A' for Active; 'I' for Inactive)
REMARK    1  A    between atoms: C_2  and  C_18
REMARK    2  A    between atoms: C_3  and  N_11
REMARK    3  A    between atoms: C_4  and  N_10
REMARK    4  A    between atoms: C_6  and  C_7
REMARK    5  A    between atoms: C_12  and  C_13
REMARK    6  A    between atoms: C_15  and  C_16
REMARK    7  A    between atoms: C_15  and  C_18
REMARK    8  A    between atoms: C_16  and  C_17
REMARK                            x       y       z     vdW  Elec       q    Type
REMARK                         _______ _______ _______ _____ _____    ______ ____
ROOT
ATOM      1  C   UNL     1       1.150  -0.903  -0.303  0.00  0.00    +0.000 C 
ATOM      2  C   UNL     1       1.281   0.595  -0.179  0.00  0.00    +0.000 C 
ATOM      3  C   UNL     1      -0.064   1.257   0.322  0.00  0.00    +0.000 C 
ATOM      4  C   UNL     1      -1.361   0.633  -0.292  0.00  0.00    +0.000 C 
ATOM      5  C   UNL     1      -1.377  -0.847   0.108  0.00  0.00    +0.000 C 
ATOM      6  C   UNL     1      -0.033  -1.555  -0.201  0.00  0.00    +0.000 C 
ENDROOT
BRANCH   3   7
ATOM      7  N   UNL     1      -0.298   1.268   1.829  0.00  0.00    +0.000 N 
ATOM      8  C   UNL     1       0.011   0.293   2.882  0.00  0.00    +0.000 C 
ATOM      9  C   UNL     1       0.780  -0.988   2.742  0.00  0.00    +0.000 C 
ATOM     10  O   UNL     1      -0.383   0.574   4.020  0.00  0.00    +0.000 OA
ATOM     11  H   UNL     1      -0.745   2.090   2.160  0.00  0.00    +0.000 HD
ENDBRANCH   3   7
BRANCH   4  12
ATOM     12  N   UNL     1      -1.533   0.705  -1.735  0.00  0.00    +0.000 N 
ATOM     13  H   UNL     1      -0.885   0.129  -2.176  0.00  0.00    +0.000 HD
ATOM     14  H   UNL     1      -1.443   1.680  -2.055  0.00  0.00    +0.000 HD
ATOM     15  H   UNL     1      -2.467   0.352  -1.972  0.00  0.00    +0.000 HD
ENDBRANCH   4  12
BRANCH   6  16
ATOM     16  C   UNL     1       0.001  -3.009  -0.293  0.00  0.00    +0.000 C 
ATOM     17  O   UNL     1       1.072  -3.592  -0.462  0.00  0.00    +0.000 OA
ATOM     18  O   UNL     1      -1.148  -3.719  -0.150  0.00  0.00    +0.000 OA
ENDBRANCH   6  16
BRANCH   2  19
ATOM     19  C   UNL     1       1.847   1.173  -1.547  0.00  0.00    +0.000 C 
BRANCH  19  20
ATOM     20  C   UNL     1       1.312   0.525  -2.821  0.00  0.00    +0.000 C 
BRANCH  20  21
ATOM     21  C   UNL     1       1.473   1.459  -4.024  0.00  0.00    +0.000 C 
ATOM     22  C   UNL     1       0.740   0.836  -5.228  0.00  0.00    +0.000 C 
ENDBRANCH  20  21
ENDBRANCH  19  20
ENDBRANCH   2  19
TORSDOF 6
ENDMDL
MODEL       40
REMARK  Name = BDB5257
REMARK  5 active torsions:
REMARK  status: ('A' for Active; 'I' for Inactive)
REMARK    1  A    between atoms: C_2  and  N_20
REMARK    2  A    between atoms: C_3  and  N_11
REMARK    3  A    between atoms: C_4  and  N_10
REMARK    4  A    between atoms: C_6  and  C_7
REMARK    5  A    between atoms: C_12  and  C_13
REMARK                            x       y       z     vdW  Elec       q    Type
REMARK                         _______ _______ _______ _____ _____    ______ ____
ROOT
ATOM      1  C   UNL     1       1.054  -0.935  -0.408  0.00  0.00    +0.000 C 
ATOM      2  C   UNL     1       1.231   0.560  -0.302  0.00  0.00    +0.000 C 
ATOM      3  C   UNL     1      -0.075   1.253   0.268  0.00  0.00    +0.000 C 
ATOM      4  C   UNL     1      -1.427   0.612  -0.229  0.00  0.00    +0.000 C 
ATOM      5  C   UNL     1      -1.421  -0.851   0.218  0.00  0.00    +0.000 C 
ATOM      6  C   UNL     1      -0.120  -1.575  -0.197  0.00  0.00    +0.000 C 
ENDROOT
BRANCH   2  12
ATOM      7  C   UNL     1       3.745   1.006  -3.148  0.00  0.00    +0.000 C 
ATOM      8  C   UNL     1       1.659   1.472  -4.070  0.00  0.00    +0.000 C 
ATOM      9  C   UNL     1       0.971   0.895  -2.826  0.00  0.00    +0.000 C 
ATOM     10  C   UNL     1       3.082   0.432  -1.875  0.00  0.00    +0.000 C 
ATOM     11  O   UNL     1       2.896   0.796  -4.279  0.00  0.00    +0.000 OA
ATOM     12  N   UNL     1       1.785   1.089  -1.636  0.00  0.00    +0.000 NA
ENDBRANCH   2  12
BRANCH   3  13
ATOM     13  N   UNL     1      -0.213   1.289   1.791  0.00  0.00    +0.000 N 
ATOM     14  C   UNL     1       0.119   0.307   2.835  0.00  0.00    +0.000 C 
ATOM     15  C   UNL     1       0.902  -0.964   2.672  0.00  0.00    +0.000 C 
ATOM     16  O   UNL     1      -0.255   0.580   3.982  0.00  0.00    +0.000 OA
ATOM     17  H   UNL     1      -0.627   2.122   2.138  0.00  0.00    +0.000 HD
ENDBRANCH   3  13
BRANCH   4  18
ATOM     18  N   UNL     1      -1.716   0.617  -1.654  0.00  0.00    +0.000 N 
ATOM     19  H   UNL     1      -1.093   0.006  -2.132  0.00  0.00    +0.000 HD
ATOM     20  H   UNL     1      -1.659   1.578  -2.023  0.00  0.00    +0.000 HD
ATOM     21  H   UNL     1      -2.668   0.256  -1.792  0.00  0.00    +0.000 HD
ENDBRANCH   4  18
BRANCH   6  22
ATOM     22  C   UNL     1      -0.097  -3.028  -0.277  0.00  0.00    +0.000 C 
ATOM     23  O   UNL     1       0.958  -3.615  -0.516  0.00  0.00    +0.000 OA
ATOM     24  O   UNL     1      -1.232  -3.733  -0.037  0.00  0.00    +0.000 OA
ENDBRANCH   6  22
TORSDOF 4
ENDMDL
