MODEL 1
REMARK VINA RESULT:    -8.005      0.000      0.000
REMARK INTER + INTRA:         -13.275
REMARK INTER:                 -11.748
REMARK INTRA:                  -1.526
REMARK UNBOUND:                -1.526
REMARK  Name = 1a4g_na/1A4G-ZMR.pdb
REMARK  10 active torsions:
REMARK  status: ('A' for Active; 'I' for Inactive)
REMARK    1  A    between atoms: NE_1  and  C4_10
REMARK    2  A    between atoms: C1_5  and  O1B_7
REMARK    3  A    between atoms: C1_5  and  C2_8
REMARK    4  A    between atoms: C5_11  and  N5_12
REMARK    5  A    between atoms: C6_13  and  C7_15
REMARK    6  A    between atoms: C7_15  and  O7_16
REMARK    7  A    between atoms: C7_15  and  C8_17
REMARK    8  A    between atoms: C8_17  and  O8_18
REMARK    9  A    between atoms: C8_17  and  C9_19
REMARK   10  A    between atoms: C9_19  and  O9_20
REMARK                            x       y       z     vdW  Elec       q    Type
REMARK                         _______ _______ _______ _____ _____    ______ ____
ROOT
ATOM      1  C2  ZMR A 466      -2.114  57.446  -7.012  0.00  0.00    +0.000 C 
ATOM      2  C3  ZMR A 466      -1.243  56.435  -7.163  0.00  0.00    +0.000 C 
ATOM      3  C4  ZMR A 466      -1.352  55.488  -8.320  0.00  0.00    +0.000 C 
ATOM      4  C5  ZMR A 466      -2.236  56.007  -9.395  0.00  0.00    +0.000 C 
ATOM      5  C6  ZMR A 466      -3.504  56.629  -8.735  0.00  0.00    +0.000 C 
ATOM      6  O6  ZMR A 466      -3.126  57.662  -7.830  0.00  0.00    +0.000 OA
ENDROOT
BRANCH   3   7
ATOM      7  NE  ZMR A 466      -0.072  55.111  -8.880  0.00  0.00    +0.000 N 
ATOM      8  CZ  ZMR A 466       0.181  53.874  -9.299  0.00  0.00    +0.000 C 
ATOM      9  NH1 ZMR A 466      -0.687  52.878  -9.093  0.00  0.00    +0.000 NA
ATOM     10  NH2 ZMR A 466       1.295  53.660  -9.994  0.00  0.00    +0.000 N 
ATOM     11  H01 ZMR A 466      -1.544  53.052  -8.588  0.00  0.00    +0.000 HD
ATOM     12  H02 ZMR A 466       1.935  54.421 -10.169  0.00  0.00    +0.000 HD
ATOM     13  H03 ZMR A 466       1.501  52.736 -10.346  0.00  0.00    +0.000 HD
ATOM     14  H05 ZMR A 466       0.653  55.810  -8.955  0.00  0.00    +0.000 HD
ENDBRANCH   3   7
BRANCH   4  15
ATOM     15  N5  ZMR A 466      -2.652  54.928 -10.279  0.00  0.00    +0.000 N 
ATOM     16  C10 ZMR A 466      -2.471  54.940 -11.602  0.00  0.00    +0.000 C 
ATOM     17  O10 ZMR A 466      -2.082  55.908 -12.224  0.00  0.00    +0.000 OA
ATOM     18  C11 ZMR A 466      -2.770  53.627 -12.297  0.00  0.00    +0.000 C 
ATOM     19  H06 ZMR A 466      -3.104  54.123  -9.867  0.00  0.00    +0.000 HD
ENDBRANCH   4  15
BRANCH   1  20
ATOM     20  C1  ZMR A 466      -1.961  58.389  -5.890  0.00  0.00    +0.000 C 
ATOM     21  O1A ZMR A 466      -0.851  59.131  -5.863  0.00  0.00    +0.000 OA
BRANCH  20  22
ATOM     22  O1B ZMR A 466      -2.816  58.434  -5.063  0.00  0.00    +0.000 OA
ATOM     23  H04 ZMR A 466      -2.646  57.773  -4.389  0.00  0.00    +0.000 HD
ENDBRANCH  20  22
ENDBRANCH   1  20
BRANCH   5  24
ATOM     24  C7  ZMR A 466      -4.639  57.075  -9.643  0.00  0.00    +0.000 C 
BRANCH  24  25
ATOM     25  O7  ZMR A 466      -3.849  57.541 -10.258  0.00  0.00    +0.000 OA
ATOM     26  H07 ZMR A 466      -4.059  57.431 -11.187  0.00  0.00    +0.000 HD
ENDBRANCH  24  25
BRANCH  24  27
ATOM     27  C8  ZMR A 466      -5.726  57.762  -8.998  0.00  0.00    +0.000 C 
BRANCH  27  28
ATOM     28  O8  ZMR A 466      -6.139  56.804  -8.019  0.00  0.00    +0.000 OA
ATOM     29  H08 ZMR A 466      -5.366  56.385  -7.634  0.00  0.00    +0.000 HD
ENDBRANCH  27  28
BRANCH  27  30
ATOM     30  C9  ZMR A 466      -6.906  58.113  -9.902  0.00  0.00    +0.000 C 
BRANCH  30  31
ATOM     31  O9  ZMR A 466      -6.996  57.181 -10.979  0.00  0.00    +0.000 OA
ATOM     32  H09 ZMR A 466      -6.415  57.459 -11.691  0.00  0.00    +0.000 HD
ENDBRANCH  30  31
ENDBRANCH  27  30
ENDBRANCH  24  27
ENDBRANCH   5  24
TORSDOF 10
ENDMDL
MODEL 2
REMARK VINA RESULT:    -7.788      2.085      4.604
REMARK INTER + INTRA:         -12.957
REMARK INTER:                 -11.801
REMARK INTRA:                  -1.156
REMARK UNBOUND:                -1.526
REMARK  Name = 1a4g_na/1A4G-ZMR.pdb
REMARK  10 active torsions:
REMARK  status: ('A' for Active; 'I' for Inactive)
REMARK    1  A    between atoms: NE_1  and  C4_10
REMARK    2  A    between atoms: C1_5  and  O1B_7
REMARK    3  A    between atoms: C1_5  and  C2_8
REMARK    4  A    between atoms: C5_11  and  N5_12
REMARK    5  A    between atoms: C6_13  and  C7_15
REMARK    6  A    between atoms: C7_15  and  O7_16
REMARK    7  A    between atoms: C7_15  and  C8_17
REMARK    8  A    between atoms: C8_17  and  O8_18
REMARK    9  A    between atoms: C8_17  and  C9_19
REMARK   10  A    between atoms: C9_19  and  O9_20
REMARK                            x       y       z     vdW  Elec       q    Type
REMARK                         _______ _______ _______ _____ _____    ______ ____
ROOT
ATOM      1  C2  ZMR A 466      -5.299  57.754  -9.049  0.00  0.00    +0.000 C 
ATOM      2  C3  ZMR A 466      -5.407  56.570  -9.675  0.00  0.00    +0.000 C 
ATOM      3  C4  ZMR A 466      -4.295  55.566  -9.625  0.00  0.00    +0.000 C 
ATOM      4  C5  ZMR A 466      -3.305  55.870  -8.560  0.00  0.00    +0.000 C 
ATOM      5  C6  ZMR A 466      -3.014  57.400  -8.577  0.00  0.00    +0.000 C 
ATOM      6  O6  ZMR A 466      -4.223  58.130  -8.385  0.00  0.00    +0.000 OA
ENDROOT
BRANCH   3   7
ATOM      7  NE  ZMR A 466      -4.755  54.201  -9.490  0.00  0.00    +0.000 N 
ATOM      8  CZ  ZMR A 466      -4.267  53.212 -10.233  0.00  0.00    +0.000 C 
ATOM      9  NH1 ZMR A 466      -3.426  53.451 -11.245  0.00  0.00    +0.000 NA
ATOM     10  NH2 ZMR A 466      -4.582  51.962  -9.904  0.00  0.00    +0.000 N 
ATOM     11  H01 ZMR A 466      -3.170  54.400 -11.474  0.00  0.00    +0.000 HD
ATOM     12  H02 ZMR A 466      -5.197  51.785  -9.123  0.00  0.00    +0.000 HD
ATOM     13  H03 ZMR A 466      -4.205  51.190 -10.435  0.00  0.00    +0.000 HD
ATOM     14  H05 ZMR A 466      -5.471  53.992  -8.809  0.00  0.00    +0.000 HD
ENDBRANCH   3   7
BRANCH   4  15
ATOM     15  N5  ZMR A 466      -2.060  55.155  -8.801  0.00  0.00    +0.000 N 
ATOM     16  C10 ZMR A 466      -1.737  54.004  -8.205  0.00  0.00    +0.000 C 
ATOM     17  O10 ZMR A 466      -2.371  53.512  -7.294  0.00  0.00    +0.000 OA
ATOM     18  C11 ZMR A 466      -0.507  53.321  -8.768  0.00  0.00    +0.000 C 
ATOM     19  H06 ZMR A 466      -1.403  55.553  -9.457  0.00  0.00    +0.000 HD
ENDBRANCH   4  15
BRANCH   1  20
ATOM     20  C1  ZMR A 466      -6.422  58.707  -9.078  0.00  0.00    +0.000 C 
ATOM     21  O1A ZMR A 466      -6.177  59.950  -8.654  0.00  0.00    +0.000 OA
BRANCH  20  22
ATOM     22  O1B ZMR A 466      -7.483  58.327  -9.461  0.00  0.00    +0.000 OA
ATOM     23  H04 ZMR A 466      -7.553  58.472 -10.407  0.00  0.00    +0.000 HD
ENDBRANCH  20  22
ENDBRANCH   1  20
BRANCH   5  24
ATOM     24  C7  ZMR A 466      -1.901  57.928  -7.685  0.00  0.00    +0.000 C 
BRANCH  24  25
ATOM     25  O7  ZMR A 466      -2.131  57.066  -7.035  0.00  0.00    +0.000 OA
ATOM     26  H07 ZMR A 466      -2.213  56.274  -7.569  0.00  0.00    +0.000 HD
ENDBRANCH  24  25
BRANCH  24  27
ATOM     27  C8  ZMR A 466      -1.996  59.316  -7.318  0.00  0.00    +0.000 C 
BRANCH  27  28
ATOM     28  O8  ZMR A 466      -0.676  59.787  -7.605  0.00  0.00    +0.000 OA
ATOM     29  H08 ZMR A 466      -0.209  59.133  -8.130  0.00  0.00    +0.000 HD
ENDBRANCH  27  28
BRANCH  27  30
ATOM     30  C9  ZMR A 466      -2.328  59.583  -5.851  0.00  0.00    +0.000 C 
BRANCH  30  31
ATOM     31  O9  ZMR A 466      -3.452  58.801  -5.450  0.00  0.00    +0.000 OA
ATOM     32  H09 ZMR A 466      -4.139  58.861  -6.119  0.00  0.00    +0.000 HD
ENDBRANCH  30  31
ENDBRANCH  27  30
ENDBRANCH  24  27
ENDBRANCH   5  24
TORSDOF 10
ENDMDL
MODEL 3
REMARK VINA RESULT:    -7.344      3.331      5.271
REMARK INTER + INTRA:         -12.304
REMARK INTER:                 -10.959
REMARK INTRA:                  -1.346
REMARK UNBOUND:                -1.526
REMARK  Name = 1a4g_na/1A4G-ZMR.pdb
REMARK  10 active torsions:
REMARK  status: ('A' for Active; 'I' for Inactive)
REMARK    1  A    between atoms: NE_1  and  C4_10
REMARK    2  A    between atoms: C1_5  and  O1B_7
REMARK    3  A    between atoms: C1_5  and  C2_8
REMARK    4  A    between atoms: C5_11  and  N5_12
REMARK    5  A    between atoms: C6_13  and  C7_15
REMARK    6  A    between atoms: C7_15  and  O7_16
REMARK    7  A    between atoms: C7_15  and  C8_17
REMARK    8  A    between atoms: C8_17  and  O8_18
REMARK    9  A    between atoms: C8_17  and  C9_19
REMARK   10  A    between atoms: C9_19  and  O9_20
REMARK                            x       y       z     vdW  Elec       q    Type
REMARK                         _______ _______ _______ _____ _____    ______ ____
ROOT
ATOM      1  C2  ZMR A 466      -3.998  54.684  -9.739  0.00  0.00    +0.000 C 
ATOM      2  C3  ZMR A 466      -3.264  55.334  -8.822  0.00  0.00    +0.000 C 
ATOM      3  C4  ZMR A 466      -3.372  56.820  -8.657  0.00  0.00    +0.000 C 
ATOM      4  C5  ZMR A 466      -4.581  57.376  -9.318  0.00  0.00    +0.000 C 
ATOM      5  C6  ZMR A 466      -4.734  56.703 -10.715  0.00  0.00    +0.000 C 
ATOM      6  O6  ZMR A 466      -4.828  55.289 -10.568  0.00  0.00    +0.000 OA
ENDROOT
BRANCH   3   7
ATOM      7  NE  ZMR A 466      -3.328  57.253  -7.277  0.00  0.00    +0.000 N 
ATOM      8  CZ  ZMR A 466      -2.541  58.245  -6.871  0.00  0.00    +0.000 C 
ATOM      9  NH1 ZMR A 466      -1.643  58.802  -7.691  0.00  0.00    +0.000 NA
ATOM     10  NH2 ZMR A 466      -2.713  58.724  -5.641  0.00  0.00    +0.000 N 
ATOM     11  H01 ZMR A 466      -1.533  58.452  -8.632  0.00  0.00    +0.000 HD
ATOM     12  H02 ZMR A 466      -3.411  58.317  -5.035  0.00  0.00    +0.000 HD
ATOM     13  H03 ZMR A 466      -2.147  59.493  -5.315  0.00  0.00    +0.000 HD
ATOM     14  H05 ZMR A 466      -3.914  56.786  -6.599  0.00  0.00    +0.000 HD
ENDBRANCH   3   7
BRANCH   4  15
ATOM     15  N5  ZMR A 466      -4.445  58.813  -9.505  0.00  0.00    +0.000 N 
ATOM     16  C10 ZMR A 466      -5.375  59.701  -9.140  0.00  0.00    +0.000 C 
ATOM     17  O10 ZMR A 466      -6.487  59.399  -8.757  0.00  0.00    +0.000 OA
ATOM     18  C11 ZMR A 466      -4.935  61.149  -9.218  0.00  0.00    +0.000 C 
ATOM     19  H06 ZMR A 466      -3.599  59.159  -9.935  0.00  0.00    +0.000 HD
ENDBRANCH   4  15
BRANCH   1  20
ATOM     20  C1  ZMR A 466      -3.904  53.219  -9.855  0.00  0.00    +0.000 C 
ATOM     21  O1A ZMR A 466      -3.085  52.732 -10.791  0.00  0.00    +0.000 OA
BRANCH  20  22
ATOM     22  O1B ZMR A 466      -4.562  52.546  -9.126  0.00  0.00    +0.000 OA
ATOM     23  H04 ZMR A 466      -4.035  52.284  -8.368  0.00  0.00    +0.000 HD
ENDBRANCH  20  22
ENDBRANCH   1  20
BRANCH   5  24
ATOM     24  C7  ZMR A 466      -5.807  57.234 -11.653  0.00  0.00    +0.000 C 
BRANCH  24  25
ATOM     25  O7  ZMR A 466      -6.517  56.677 -11.017  0.00  0.00    +0.000 OA
ATOM     26  H07 ZMR A 466      -6.653  57.153 -10.195  0.00  0.00    +0.000 HD
ENDBRANCH  24  25
BRANCH  24  27
ATOM     27  C8  ZMR A 466      -5.577  57.018 -13.057  0.00  0.00    +0.000 C 
BRANCH  27  28
ATOM     28  O8  ZMR A 466      -4.243  57.510 -13.215  0.00  0.00    +0.000 OA
ATOM     29  H08 ZMR A 466      -4.143  57.891 -14.090  0.00  0.00    +0.000 HD
ENDBRANCH  27  28
BRANCH  27  30
ATOM     30  C9  ZMR A 466      -6.515  57.772 -13.997  0.00  0.00    +0.000 C 
BRANCH  30  31
ATOM     31  O9  ZMR A 466      -7.868  57.388 -13.754  0.00  0.00    +0.000 OA
ATOM     32  H09 ZMR A 466      -8.035  56.532 -14.156  0.00  0.00    +0.000 HD
ENDBRANCH  30  31
ENDBRANCH  27  30
ENDBRANCH  24  27
ENDBRANCH   5  24
TORSDOF 10
ENDMDL
MODEL 4
REMARK VINA RESULT:    -7.063      2.445      4.950
REMARK INTER + INTRA:         -11.893
REMARK INTER:                 -11.574
REMARK INTRA:                  -0.319
REMARK UNBOUND:                -1.526
REMARK  Name = 1a4g_na/1A4G-ZMR.pdb
REMARK  10 active torsions:
REMARK  status: ('A' for Active; 'I' for Inactive)
REMARK    1  A    between atoms: NE_1  and  C4_10
REMARK    2  A    between atoms: C1_5  and  O1B_7
REMARK    3  A    between atoms: C1_5  and  C2_8
REMARK    4  A    between atoms: C5_11  and  N5_12
REMARK    5  A    between atoms: C6_13  and  C7_15
REMARK    6  A    between atoms: C7_15  and  O7_16
REMARK    7  A    between atoms: C7_15  and  C8_17
REMARK    8  A    between atoms: C8_17  and  O8_18
REMARK    9  A    between atoms: C8_17  and  C9_19
REMARK   10  A    between atoms: C9_19  and  O9_20
REMARK                            x       y       z     vdW  Elec       q    Type
REMARK                         _______ _______ _______ _____ _____    ______ ____
ROOT
ATOM      1  C2  ZMR A 466      -2.886  57.595  -7.491  0.00  0.00    +0.000 C 
ATOM      2  C3  ZMR A 466      -3.754  57.930  -8.460  0.00  0.00    +0.000 C 
ATOM      3  C4  ZMR A 466      -4.138  56.950  -9.527  0.00  0.00    +0.000 C 
ATOM      4  C5  ZMR A 466      -3.762  55.556  -9.176  0.00  0.00    +0.000 C 
ATOM      5  C6  ZMR A 466      -2.329  55.569  -8.565  0.00  0.00    +0.000 C 
ATOM      6  O6  ZMR A 466      -2.292  56.418  -7.422  0.00  0.00    +0.000 OA
ENDROOT
BRANCH   3   7
ATOM      7  NE  ZMR A 466      -5.539  57.003  -9.884  0.00  0.00    +0.000 N 
ATOM      8  CZ  ZMR A 466      -5.952  57.446 -11.068  0.00  0.00    +0.000 C 
ATOM      9  NH1 ZMR A 466      -5.101  57.999 -11.940  0.00  0.00    +0.000 NA
ATOM     10  NH2 ZMR A 466      -7.227  57.264 -11.400  0.00  0.00    +0.000 N 
ATOM     11  H01 ZMR A 466      -4.128  58.112 -11.693  0.00  0.00    +0.000 HD
ATOM     12  H02 ZMR A 466      -7.860  56.822 -10.749  0.00  0.00    +0.000 HD
ATOM     13  H03 ZMR A 466      -7.562  57.568 -12.303  0.00  0.00    +0.000 HD
ATOM     14  H05 ZMR A 466      -6.226  56.694  -9.212  0.00  0.00    +0.000 HD
ENDBRANCH   3   7
BRANCH   4  15
ATOM     15  N5  ZMR A 466      -3.755  54.715 -10.365  0.00  0.00    +0.000 N 
ATOM     16  C10 ZMR A 466      -3.085  55.013 -11.482  0.00  0.00    +0.000 C 
ATOM     17  O10 ZMR A 466      -2.540  56.080 -11.680  0.00  0.00    +0.000 OA
ATOM     18  C11 ZMR A 466      -3.030  53.898 -12.506  0.00  0.00    +0.000 C 
ATOM     19  H06 ZMR A 466      -4.287  53.856 -10.343  0.00  0.00    +0.000 HD
ENDBRANCH   4  15
BRANCH   1  20
ATOM     20  C1  ZMR A 466      -2.557  58.562  -6.430  0.00  0.00    +0.000 C 
ATOM     21  O1A ZMR A 466      -3.389  58.630  -5.388  0.00  0.00    +0.000 OA
BRANCH  20  22
ATOM     22  O1B ZMR A 466      -1.584  59.237  -6.555  0.00  0.00    +0.000 OA
ATOM     23  H04 ZMR A 466      -0.835  58.681  -6.779  0.00  0.00    +0.000 HD
ENDBRANCH  20  22
ENDBRANCH   1  20
BRANCH   5  24
ATOM     24  C7  ZMR A 466      -1.658  54.233  -8.284  0.00  0.00    +0.000 C 
BRANCH  24  25
ATOM     25  O7  ZMR A 466      -1.407  54.664  -7.299  0.00  0.00    +0.000 OA
ATOM     26  H07 ZMR A 466      -0.564  54.316  -7.002  0.00  0.00    +0.000 HD
ENDBRANCH  24  25
BRANCH  24  27
ATOM     27  C8  ZMR A 466      -0.717  53.783  -9.276  0.00  0.00    +0.000 C 
BRANCH  27  28
ATOM     28  O8  ZMR A 466      -0.466  52.439  -8.853  0.00  0.00    +0.000 OA
ATOM     29  H08 ZMR A 466      -0.394  52.412  -7.896  0.00  0.00    +0.000 HD
ENDBRANCH  27  28
BRANCH  27  30
ATOM     30  C9  ZMR A 466       0.599  54.558  -9.328  0.00  0.00    +0.000 C 
BRANCH  30  31
ATOM     31  O9  ZMR A 466       1.581  53.813 -10.047  0.00  0.00    +0.000 OA
ATOM     32  H09 ZMR A 466       2.377  54.342 -10.142  0.00  0.00    +0.000 HD
ENDBRANCH  30  31
ENDBRANCH  27  30
ENDBRANCH  24  27
ENDBRANCH   5  24
TORSDOF 10
ENDMDL
MODEL 5
REMARK VINA RESULT:    -6.811      2.108      2.689
REMARK INTER + INTRA:         -11.523
REMARK INTER:                 -10.549
REMARK INTRA:                  -0.974
REMARK UNBOUND:                -1.526
REMARK  Name = 1a4g_na/1A4G-ZMR.pdb
REMARK  10 active torsions:
REMARK  status: ('A' for Active; 'I' for Inactive)
REMARK    1  A    between atoms: NE_1  and  C4_10
REMARK    2  A    between atoms: C1_5  and  O1B_7
REMARK    3  A    between atoms: C1_5  and  C2_8
REMARK    4  A    between atoms: C5_11  and  N5_12
REMARK    5  A    between atoms: C6_13  and  C7_15
REMARK    6  A    between atoms: C7_15  and  O7_16
REMARK    7  A    between atoms: C7_15  and  C8_17
REMARK    8  A    between atoms: C8_17  and  O8_18
REMARK    9  A    between atoms: C8_17  and  C9_19
REMARK   10  A    between atoms: C9_19  and  O9_20
REMARK                            x       y       z     vdW  Elec       q    Type
REMARK                         _______ _______ _______ _____ _____    ______ ____
ROOT
ATOM      1  C2  ZMR A 466      -2.065  57.110  -7.903  0.00  0.00    +0.000 C 
ATOM      2  C3  ZMR A 466      -2.222  55.905  -8.476  0.00  0.00    +0.000 C 
ATOM      3  C4  ZMR A 466      -3.095  55.731  -9.682  0.00  0.00    +0.000 C 
ATOM      4  C5  ZMR A 466      -3.422  57.025 -10.335  0.00  0.00    +0.000 C 
ATOM      5  C6  ZMR A 466      -3.769  58.064  -9.228  0.00  0.00    +0.000 C 
ATOM      6  O6  ZMR A 466      -2.675  58.201  -8.326  0.00  0.00    +0.000 OA
ENDROOT
BRANCH   3   7
ATOM      7  NE  ZMR A 466      -2.552  54.814 -10.660  0.00  0.00    +0.000 N 
ATOM      8  CZ  ZMR A 466      -2.958  53.550 -10.748  0.00  0.00    +0.000 C 
ATOM      9  NH1 ZMR A 466      -3.787  53.021  -9.841  0.00  0.00    +0.000 NA
ATOM     10  NH2 ZMR A 466      -2.572  52.836 -11.802  0.00  0.00    +0.000 N 
ATOM     11  H01 ZMR A 466      -4.098  53.575  -9.057  0.00  0.00    +0.000 HD
ATOM     12  H02 ZMR A 466      -1.967  53.248 -12.496  0.00  0.00    +0.000 HD
ATOM     13  H03 ZMR A 466      -2.886  51.881 -11.907  0.00  0.00    +0.000 HD
ATOM     14  H05 ZMR A 466      -1.842  55.143 -11.298  0.00  0.00    +0.000 HD
ENDBRANCH   3   7
BRANCH   4  15
ATOM     15  N5  ZMR A 466      -4.574  56.877 -11.213  0.00  0.00    +0.000 N 
ATOM     16  C10 ZMR A 466      -4.643  57.396 -12.442  0.00  0.00    +0.000 C 
ATOM     17  O10 ZMR A 466      -3.824  58.168 -12.898  0.00  0.00    +0.000 OA
ATOM     18  C11 ZMR A 466      -5.829  56.931 -13.263  0.00  0.00    +0.000 C 
ATOM     19  H06 ZMR A 466      -5.366  56.350 -10.873  0.00  0.00    +0.000 HD
ENDBRANCH   4  15
BRANCH   1  20
ATOM     20  C1  ZMR A 466      -1.170  57.263  -6.743  0.00  0.00    +0.000 C 
ATOM     21  O1A ZMR A 466      -0.881  56.161  -6.047  0.00  0.00    +0.000 OA
BRANCH  20  22
ATOM     22  O1B ZMR A 466      -0.761  58.349  -6.478  0.00  0.00    +0.000 OA
ATOM     23  H04 ZMR A 466      -1.501  58.946  -6.345  0.00  0.00    +0.000 HD
ENDBRANCH  20  22
ENDBRANCH   1  20
BRANCH   5  24
ATOM     24  C7  ZMR A 466      -4.303  59.421  -9.660  0.00  0.00    +0.000 C 
BRANCH  24  25
ATOM     25  O7  ZMR A 466      -3.477  59.841  -9.061  0.00  0.00    +0.000 OA
ATOM     26  H07 ZMR A 466      -2.759  60.099  -9.642  0.00  0.00    +0.000 HD
ENDBRANCH  24  25
BRANCH  24  27
ATOM     27  C8  ZMR A 466      -5.708  59.642  -9.438  0.00  0.00    +0.000 C 
BRANCH  27  28
ATOM     28  O8  ZMR A 466      -5.691  60.589  -8.366  0.00  0.00    +0.000 OA
ATOM     29  H08 ZMR A 466      -5.037  60.325  -7.716  0.00  0.00    +0.000 HD
ENDBRANCH  27  28
BRANCH  27  30
ATOM     30  C9  ZMR A 466      -6.506  58.408  -9.020  0.00  0.00    +0.000 C 
BRANCH  30  31
ATOM     31  O9  ZMR A 466      -7.238  57.895 -10.132  0.00  0.00    +0.000 OA
ATOM     32  H09 ZMR A 466      -7.652  57.064  -9.886  0.00  0.00    +0.000 HD
ENDBRANCH  30  31
ENDBRANCH  27  30
ENDBRANCH  24  27
ENDBRANCH   5  24
TORSDOF 10
ENDMDL
MODEL 6
REMARK VINA RESULT:    -6.784      3.263      5.612
REMARK INTER + INTRA:         -11.484
REMARK INTER:                  -9.978
REMARK INTRA:                  -1.506
REMARK UNBOUND:                -1.526
REMARK  Name = 1a4g_na/1A4G-ZMR.pdb
REMARK  10 active torsions:
REMARK  status: ('A' for Active; 'I' for Inactive)
REMARK    1  A    between atoms: NE_1  and  C4_10
REMARK    2  A    between atoms: C1_5  and  O1B_7
REMARK    3  A    between atoms: C1_5  and  C2_8
REMARK    4  A    between atoms: C5_11  and  N5_12
REMARK    5  A    between atoms: C6_13  and  C7_15
REMARK    6  A    between atoms: C7_15  and  O7_16
REMARK    7  A    between atoms: C7_15  and  C8_17
REMARK    8  A    between atoms: C8_17  and  O8_18
REMARK    9  A    between atoms: C8_17  and  C9_19
REMARK   10  A    between atoms: C9_19  and  O9_20
REMARK                            x       y       z     vdW  Elec       q    Type
REMARK                         _______ _______ _______ _____ _____    ______ ____
ROOT
ATOM      1  C2  ZMR A 466      -3.010  55.442  -8.857  0.00  0.00    +0.000 C 
ATOM      2  C3  ZMR A 466      -3.983  55.461  -9.783  0.00  0.00    +0.000 C 
ATOM      3  C4  ZMR A 466      -4.664  56.741 -10.162  0.00  0.00    +0.000 C 
ATOM      4  C5  ZMR A 466      -3.914  57.939  -9.702  0.00  0.00    +0.000 C 
ATOM      5  C6  ZMR A 466      -3.422  57.684  -8.246  0.00  0.00    +0.000 C 
ATOM      6  O6  ZMR A 466      -2.608  56.515  -8.203  0.00  0.00    +0.000 OA
ENDROOT
BRANCH   3   7
ATOM      7  NE  ZMR A 466      -4.939  56.851 -11.578  0.00  0.00    +0.000 N 
ATOM      8  CZ  ZMR A 466      -6.150  57.144 -12.044  0.00  0.00    +0.000 C 
ATOM      9  NH1 ZMR A 466      -7.210  57.210 -11.232  0.00  0.00    +0.000 NA
ATOM     10  NH2 ZMR A 466      -6.274  57.438 -13.336  0.00  0.00    +0.000 N 
ATOM     11  H01 ZMR A 466      -7.106  57.011 -10.248  0.00  0.00    +0.000 HD
ATOM     12  H02 ZMR A 466      -5.466  57.411 -13.940  0.00  0.00    +0.000 HD
ATOM     13  H03 ZMR A 466      -7.178  57.687 -13.712  0.00  0.00    +0.000 HD
ATOM     14  H05 ZMR A 466      -4.186  56.702 -12.235  0.00  0.00    +0.000 HD
ENDBRANCH   3   7
BRANCH   4  15
ATOM     15  N5  ZMR A 466      -4.776  59.112  -9.704  0.00  0.00    +0.000 N 
ATOM     16  C10 ZMR A 466      -4.476  60.252 -10.333  0.00  0.00    +0.000 C 
ATOM     17  O10 ZMR A 466      -3.396  60.484 -10.837  0.00  0.00    +0.000 OA
ATOM     18  C11 ZMR A 466      -5.608  61.259 -10.397  0.00  0.00    +0.000 C 
ATOM     19  H06 ZMR A 466      -5.651  59.061  -9.202  0.00  0.00    +0.000 HD
ENDBRANCH   4  15
BRANCH   1  20
ATOM     20  C1  ZMR A 466      -2.327  54.178  -8.531  0.00  0.00    +0.000 C 
ATOM     21  O1A ZMR A 466      -1.936  54.005  -7.266  0.00  0.00    +0.000 OA
BRANCH  20  22
ATOM     22  O1B ZMR A 466      -2.148  53.386  -9.401  0.00  0.00    +0.000 OA
ATOM     23  H04 ZMR A 466      -1.259  53.031  -9.333  0.00  0.00    +0.000 HD
ENDBRANCH  20  22
ENDBRANCH   1  20
BRANCH   5  24
ATOM     24  C7  ZMR A 466      -2.773  58.838  -7.496  0.00  0.00    +0.000 C 
BRANCH  24  25
ATOM     25  O7  ZMR A 466      -2.181  58.989  -8.416  0.00  0.00    +0.000 OA
ATOM     26  H07 ZMR A 466      -2.543  59.726  -8.913  0.00  0.00    +0.000 HD
ENDBRANCH  24  25
BRANCH  24  27
ATOM     27  C8  ZMR A 466      -2.249  58.524  -6.193  0.00  0.00    +0.000 C 
BRANCH  27  28
ATOM     28  O8  ZMR A 466      -3.405  58.682  -5.366  0.00  0.00    +0.000 OA
ATOM     29  H08 ZMR A 466      -4.112  59.085  -5.876  0.00  0.00    +0.000 HD
ENDBRANCH  27  28
BRANCH  27  30
ATOM     30  C9  ZMR A 466      -1.135  59.445  -5.698  0.00  0.00    +0.000 C 
BRANCH  30  31
ATOM     31  O9  ZMR A 466       0.026  59.297  -6.515  0.00  0.00    +0.000 OA
ATOM     32  H09 ZMR A 466       0.812  59.352  -5.967  0.00  0.00    +0.000 HD
ENDBRANCH  30  31
ENDBRANCH  27  30
ENDBRANCH  24  27
ENDBRANCH   5  24
TORSDOF 10
ENDMDL
MODEL 7
REMARK VINA RESULT:    -6.719      3.223      6.425
REMARK INTER + INTRA:         -11.387
REMARK INTER:                 -10.881
REMARK INTRA:                  -0.506
REMARK UNBOUND:                -1.526
REMARK  Name = 1a4g_na/1A4G-ZMR.pdb
REMARK  10 active torsions:
REMARK  status: ('A' for Active; 'I' for Inactive)
REMARK    1  A    between atoms: NE_1  and  C4_10
REMARK    2  A    between atoms: C1_5  and  O1B_7
REMARK    3  A    between atoms: C1_5  and  C2_8
REMARK    4  A    between atoms: C5_11  and  N5_12
REMARK    5  A    between atoms: C6_13  and  C7_15
REMARK    6  A    between atoms: C7_15  and  O7_16
REMARK    7  A    between atoms: C7_15  and  C8_17
REMARK    8  A    between atoms: C8_17  and  O8_18
REMARK    9  A    between atoms: C8_17  and  C9_19
REMARK   10  A    between atoms: C9_19  and  O9_20
REMARK                            x       y       z     vdW  Elec       q    Type
REMARK                         _______ _______ _______ _____ _____    ______ ____
ROOT
ATOM      1  C2  ZMR A 466      -4.677  53.602  -9.403  0.00  0.00    +0.000 C 
ATOM      2  C3  ZMR A 466      -5.299  54.791  -9.462  0.00  0.00    +0.000 C 
ATOM      3  C4  ZMR A 466      -4.535  56.070  -9.305  0.00  0.00    +0.000 C 
ATOM      4  C5  ZMR A 466      -3.069  55.877  -9.454  0.00  0.00    +0.000 C 
ATOM      5  C6  ZMR A 466      -2.660  54.589  -8.679  0.00  0.00    +0.000 C 
ATOM      6  O6  ZMR A 466      -3.385  53.467  -9.176  0.00  0.00    +0.000 OA
ENDROOT
BRANCH   3   7
ATOM      7  NE  ZMR A 466      -4.981  57.122 -10.194  0.00  0.00    +0.000 N 
ATOM      8  CZ  ZMR A 466      -5.866  58.041  -9.816  0.00  0.00    +0.000 C 
ATOM      9  NH1 ZMR A 466      -6.497  57.957  -8.639  0.00  0.00    +0.000 NA
ATOM     10  NH2 ZMR A 466      -6.061  59.091 -10.608  0.00  0.00    +0.000 N 
ATOM     11  H01 ZMR A 466      -6.326  57.171  -8.030  0.00  0.00    +0.000 HD
ATOM     12  H02 ZMR A 466      -5.563  59.163 -11.483  0.00  0.00    +0.000 HD
ATOM     13  H03 ZMR A 466      -6.709  59.816 -10.335  0.00  0.00    +0.000 HD
ATOM     14  H05 ZMR A 466      -4.609  57.159 -11.132  0.00  0.00    +0.000 HD
ENDBRANCH   3   7
BRANCH   4  15
ATOM     15  N5  ZMR A 466      -2.345  57.008  -8.895  0.00  0.00    +0.000 N 
ATOM     16  C10 ZMR A 466      -2.710  57.646  -7.778  0.00  0.00    +0.000 C 
ATOM     17  O10 ZMR A 466      -3.760  57.450  -7.199  0.00  0.00    +0.000 OA
ATOM     18  C11 ZMR A 466      -1.695  58.641  -7.254  0.00  0.00    +0.000 C 
ATOM     19  H06 ZMR A 466      -1.519  57.330  -9.378  0.00  0.00    +0.000 HD
ENDBRANCH   4  15
BRANCH   1  20
ATOM     20  C1  ZMR A 466      -5.444  52.359  -9.600  0.00  0.00    +0.000 C 
ATOM     21  O1A ZMR A 466      -6.770  52.431  -9.458  0.00  0.00    +0.000 OA
BRANCH  20  22
ATOM     22  O1B ZMR A 466      -4.852  51.360  -9.861  0.00  0.00    +0.000 OA
ATOM     23  H04 ZMR A 466      -3.978  51.392  -9.467  0.00  0.00    +0.000 HD
ENDBRANCH  20  22
ENDBRANCH   1  20
BRANCH   5  24
ATOM     24  C7  ZMR A 466      -1.178  54.275  -8.543  0.00  0.00    +0.000 C 
BRANCH  24  25
ATOM     25  O7  ZMR A 466      -1.195  54.979  -7.693  0.00  0.00    +0.000 OA
ATOM     26  H07 ZMR A 466      -0.941  55.853  -7.996  0.00  0.00    +0.000 HD
ENDBRANCH  24  25
BRANCH  24  27
ATOM     27  C8  ZMR A 466      -0.395  54.414  -9.743  0.00  0.00    +0.000 C 
BRANCH  27  28
ATOM     28  O8  ZMR A 466      -0.935  53.378 -10.568  0.00  0.00    +0.000 OA
ATOM     29  H08 ZMR A 466      -1.564  53.756 -11.187  0.00  0.00    +0.000 HD
ENDBRANCH  27  28
BRANCH  27  30
ATOM     30  C9  ZMR A 466       1.108  54.201  -9.570  0.00  0.00    +0.000 C 
BRANCH  30  31
ATOM     31  O9  ZMR A 466       1.613  55.058  -8.547  0.00  0.00    +0.000 OA
ATOM     32  H09 ZMR A 466       1.235  54.804  -7.701  0.00  0.00    +0.000 HD
ENDBRANCH  30  31
ENDBRANCH  27  30
ENDBRANCH  24  27
ENDBRANCH   5  24
TORSDOF 10
ENDMDL
MODEL 8
REMARK VINA RESULT:    -6.672      3.094      4.993
REMARK INTER + INTRA:         -11.319
REMARK INTER:                  -9.571
REMARK INTRA:                  -1.747
REMARK UNBOUND:                -1.526
REMARK  Name = 1a4g_na/1A4G-ZMR.pdb
REMARK  10 active torsions:
REMARK  status: ('A' for Active; 'I' for Inactive)
REMARK    1  A    between atoms: NE_1  and  C4_10
REMARK    2  A    between atoms: C1_5  and  O1B_7
REMARK    3  A    between atoms: C1_5  and  C2_8
REMARK    4  A    between atoms: C5_11  and  N5_12
REMARK    5  A    between atoms: C6_13  and  C7_15
REMARK    6  A    between atoms: C7_15  and  O7_16
REMARK    7  A    between atoms: C7_15  and  C8_17
REMARK    8  A    between atoms: C8_17  and  O8_18
REMARK    9  A    between atoms: C8_17  and  C9_19
REMARK   10  A    between atoms: C9_19  and  O9_20
REMARK                            x       y       z     vdW  Elec       q    Type
REMARK                         _______ _______ _______ _____ _____    ______ ____
ROOT
ATOM      1  C2  ZMR A 466      -2.203  57.365  -7.470  0.00  0.00    +0.000 C 
ATOM      2  C3  ZMR A 466      -2.547  58.552  -7.995  0.00  0.00    +0.000 C 
ATOM      3  C4  ZMR A 466      -3.328  58.635  -9.271  0.00  0.00    +0.000 C 
ATOM      4  C5  ZMR A 466      -3.953  57.338  -9.638  0.00  0.00    +0.000 C 
ATOM      5  C6  ZMR A 466      -2.912  56.203  -9.397  0.00  0.00    +0.000 C 
ATOM      6  O6  ZMR A 466      -2.489  56.209  -8.037  0.00  0.00    +0.000 OA
ENDROOT
BRANCH   3   7
ATOM      7  NE  ZMR A 466      -4.333  59.677  -9.267  0.00  0.00    +0.000 N 
ATOM      8  CZ  ZMR A 466      -4.467  60.535 -10.274  0.00  0.00    +0.000 C 
ATOM      9  NH1 ZMR A 466      -3.586  60.571 -11.280  0.00  0.00    +0.000 NA
ATOM     10  NH2 ZMR A 466      -5.541  61.320 -10.295  0.00  0.00    +0.000 N 
ATOM     11  H01 ZMR A 466      -2.785  59.956 -11.272  0.00  0.00    +0.000 HD
ATOM     12  H02 ZMR A 466      -6.216  61.270  -9.546  0.00  0.00    +0.000 HD
ATOM     13  H03 ZMR A 466      -5.681  61.964 -11.060  0.00  0.00    +0.000 HD
ATOM     14  H05 ZMR A 466      -4.953  59.754  -8.474  0.00  0.00    +0.000 HD
ENDBRANCH   3   7
BRANCH   4  15
ATOM     15  N5  ZMR A 466      -4.331  57.333 -11.043  0.00  0.00    +0.000 N 
ATOM     16  C10 ZMR A 466      -5.549  57.001 -11.484  0.00  0.00    +0.000 C 
ATOM     17  O10 ZMR A 466      -6.417  56.525 -10.780  0.00  0.00    +0.000 OA
ATOM     18  C11 ZMR A 466      -5.792  57.282 -12.953  0.00  0.00    +0.000 C 
ATOM     19  H06 ZMR A 466      -3.634  57.596 -11.725  0.00  0.00    +0.000 HD
ENDBRANCH   4  15
BRANCH   1  20
ATOM     20  C1  ZMR A 466      -1.470  57.309  -6.192  0.00  0.00    +0.000 C 
ATOM     21  O1A ZMR A 466      -1.733  58.264  -5.297  0.00  0.00    +0.000 OA
BRANCH  20  22
ATOM     22  O1B ZMR A 466      -0.681  56.434  -6.026  0.00  0.00    +0.000 OA
ATOM     23  H04 ZMR A 466       0.135  56.647  -6.485  0.00  0.00    +0.000 HD
ENDBRANCH  20  22
ENDBRANCH   1  20
BRANCH   5  24
ATOM     24  C7  ZMR A 466      -3.264  54.798  -9.862  0.00  0.00    +0.000 C 
BRANCH  24  25
ATOM     25  O7  ZMR A 466      -4.178  54.919  -9.255  0.00  0.00    +0.000 OA
ATOM     26  H07 ZMR A 466      -3.940  54.987  -8.328  0.00  0.00    +0.000 HD
ENDBRANCH  24  25
BRANCH  24  27
ATOM     27  C8  ZMR A 466      -2.245  53.800  -9.670  0.00  0.00    +0.000 C 
BRANCH  27  28
ATOM     28  O8  ZMR A 466      -2.449  53.431  -8.303  0.00  0.00    +0.000 OA
ATOM     29  H08 ZMR A 466      -3.022  54.074  -7.880  0.00  0.00    +0.000 HD
ENDBRANCH  27  28
BRANCH  27  30
ATOM     30  C9  ZMR A 466      -0.809  54.287  -9.861  0.00  0.00    +0.000 C 
BRANCH  30  31
ATOM     31  O9  ZMR A 466      -0.194  54.517  -8.594  0.00  0.00    +0.000 OA
ATOM     32  H09 ZMR A 466       0.718  54.785  -8.726  0.00  0.00    +0.000 HD
ENDBRANCH  30  31
ENDBRANCH  27  30
ENDBRANCH  24  27
ENDBRANCH   5  24
TORSDOF 10
ENDMDL
MODEL 9
REMARK VINA RESULT:    -6.555      2.282      4.620
REMARK INTER + INTRA:         -11.146
REMARK INTER:                 -10.022
REMARK INTRA:                  -1.124
REMARK UNBOUND:                -1.526
REMARK  Name = 1a4g_na/1A4G-ZMR.pdb
REMARK  10 active torsions:
REMARK  status: ('A' for Active; 'I' for Inactive)
REMARK    1  A    between atoms: NE_1  and  C4_10
REMARK    2  A    between atoms: C1_5  and  O1B_7
REMARK    3  A    between atoms: C1_5  and  C2_8
REMARK    4  A    between atoms: C5_11  and  N5_12
REMARK    5  A    between atoms: C6_13  and  C7_15
REMARK    6  A    between atoms: C7_15  and  O7_16
REMARK    7  A    between atoms: C7_15  and  C8_17
REMARK    8  A    between atoms: C8_17  and  O8_18
REMARK    9  A    between atoms: C8_17  and  C9_19
REMARK   10  A    between atoms: C9_19  and  O9_20
REMARK                            x       y       z     vdW  Elec       q    Type
REMARK                         _______ _______ _______ _____ _____    ______ ____
ROOT
ATOM      1  C2  ZMR A 466      -5.118  57.926  -9.361  0.00  0.00    +0.000 C 
ATOM      2  C3  ZMR A 466      -4.251  58.241  -8.384  0.00  0.00    +0.000 C 
ATOM      3  C4  ZMR A 466      -2.886  57.624  -8.335  0.00  0.00    +0.000 C 
ATOM      4  C5  ZMR A 466      -2.512  56.974  -9.618  0.00  0.00    +0.000 C 
ATOM      5  C6  ZMR A 466      -3.742  56.176 -10.144  0.00  0.00    +0.000 C 
ATOM      6  O6  ZMR A 466      -4.856  57.049 -10.311  0.00  0.00    +0.000 OA
ENDROOT
BRANCH   3   7
ATOM      7  NE  ZMR A 466      -1.848  58.550  -7.936  0.00  0.00    +0.000 N 
ATOM      8  CZ  ZMR A 466      -1.235  58.463  -6.759  0.00  0.00    +0.000 C 
ATOM      9  NH1 ZMR A 466      -1.646  57.601  -5.822  0.00  0.00    +0.000 NA
ATOM     10  NH2 ZMR A 466      -0.153  59.210  -6.554  0.00  0.00    +0.000 N 
ATOM     11  H01 ZMR A 466      -2.452  57.018  -5.992  0.00  0.00    +0.000 HD
ATOM     12  H02 ZMR A 466       0.168  59.840  -7.274  0.00  0.00    +0.000 HD
ATOM     13  H03 ZMR A 466       0.347  59.146  -5.679  0.00  0.00    +0.000 HD
ATOM     14  H05 ZMR A 466      -1.579  59.287  -8.573  0.00  0.00    +0.000 HD
ENDBRANCH   3   7
BRANCH   4  15
ATOM     15  N5  ZMR A 466      -1.407  56.048  -9.417  0.00  0.00    +0.000 N 
ATOM     16  C10 ZMR A 466      -1.402  55.086  -8.490  0.00  0.00    +0.000 C 
ATOM     17  O10 ZMR A 466      -2.246  54.977  -7.623  0.00  0.00    +0.000 OA
ATOM     18  C11 ZMR A 466      -0.259  54.098  -8.605  0.00  0.00    +0.000 C 
ATOM     19  H06 ZMR A 466      -0.596  56.138 -10.014  0.00  0.00    +0.000 HD
ENDBRANCH   4  15
BRANCH   1  20
ATOM     20  C1  ZMR A 466      -6.439  58.577  -9.411  0.00  0.00    +0.000 C 
ATOM     21  O1A ZMR A 466      -6.527  59.816  -8.921  0.00  0.00    +0.000 OA
BRANCH  20  22
ATOM     22  O1B ZMR A 466      -7.355  57.971  -9.869  0.00  0.00    +0.000 OA
ATOM     23  H04 ZMR A 466      -7.119  57.641 -10.738  0.00  0.00    +0.000 HD
ENDBRANCH  20  22
ENDBRANCH   1  20
BRANCH   5  24
ATOM     24  C7  ZMR A 466      -3.550  55.285 -11.362  0.00  0.00    +0.000 C 
BRANCH  24  25
ATOM     25  O7  ZMR A 466      -4.277  55.952 -11.858  0.00  0.00    +0.000 OA
ATOM     26  H07 ZMR A 466      -4.835  55.438 -12.445  0.00  0.00    +0.000 HD
ENDBRANCH  24  25
BRANCH  24  27
ATOM     27  C8  ZMR A 466      -3.713  53.872 -11.137  0.00  0.00    +0.000 C 
BRANCH  27  28
ATOM     28  O8  ZMR A 466      -4.053  53.833  -9.748  0.00  0.00    +0.000 OA
ATOM     29  H08 ZMR A 466      -4.007  54.719  -9.382  0.00  0.00    +0.000 HD
ENDBRANCH  27  28
BRANCH  27  30
ATOM     30  C9  ZMR A 466      -2.468  53.023 -11.384  0.00  0.00    +0.000 C 
BRANCH  30  31
ATOM     31  O9  ZMR A 466      -1.388  53.847 -11.822  0.00  0.00    +0.000 OA
ATOM     32  H09 ZMR A 466      -1.514  54.075 -12.746  0.00  0.00    +0.000 HD
ENDBRANCH  30  31
ENDBRANCH  27  30
ENDBRANCH  24  27
ENDBRANCH   5  24
TORSDOF 10
ENDMDL
