REMARK  Name = 1ouk_p38-alpha/1OUK-084.pdb
REMARK  6 active torsions:
REMARK  status: ('A' for Active; 'I' for Inactive)
REMARK    1  A    between atoms: C1_1  and  C12_9
REMARK    2  A    between atoms: C3_3  and  C10_7
REMARK    3  A    between atoms: C5_5  and  C11_8
REMARK    4  A    between atoms: C29_16  and  C44_25
REMARK    5  A    between atoms: N48_26  and  C49_27
REMARK    6  A    between atoms: C49_27  and  C54_29
REMARK                            x       y       z     vdW  Elec       q    Type
REMARK                         _______ _______ _______ _____ _____    ______ ____
ROOT
ATOM      1  C1  084 A 501      44.946  33.466  31.869  0.00  0.00    +0.000 A 
ATOM      2  N2  084 A 501      46.034  32.616  32.019  0.00  0.00    +0.000 N 
ATOM      3  C3  084 A 501      45.483  31.367  31.875  0.00  0.00    +0.000 A 
ATOM      4  N4  084 A 501      44.147  31.330  31.638  0.00  0.00    +0.000 NA
ATOM      5  C5  084 A 501      43.764  32.632  31.623  0.00  0.00    +0.000 A 
ATOM      6  C6  084 A 501      47.442  33.002  32.286  0.00  0.00    +0.000 C 
ENDROOT
BRANCH   1   7
ATOM      7  C12 084 A 501      45.027  34.976  31.961  0.00  0.00    +0.000 A 
ATOM      8  C37 084 A 501      44.173  35.718  32.829  0.00  0.00    +0.000 A 
ATOM      9  C38 084 A 501      44.360  37.126  32.839  0.00  0.00    +0.000 A 
ATOM     10  N39 084 A 501      45.300  37.798  32.079  0.00  0.00    +0.000 NA
ATOM     11  C40 084 A 501      46.084  37.021  31.270  0.00  0.00    +0.000 A 
ATOM     12  N41 084 A 501      45.962  35.663  31.203  0.00  0.00    +0.000 NA
ATOM     13  N48 084 A 501      47.072  37.594  30.450  0.00  0.00    +0.000 N 
ATOM     14  H01 084 A 501      47.018  38.599  30.363  0.00  0.00    +0.000 HD
BRANCH  13  15
ATOM     15  C49 084 A 501      48.205  36.951  29.676  0.00  0.00    +0.000 C 
ATOM     16  C50 084 A 501      48.866  37.881  28.994  0.00  0.00    +0.000 C 
BRANCH  15  17
ATOM     17  C54 084 A 501      49.127  36.078  30.623  0.00  0.00    +0.000 A 
ATOM     18  C56 084 A 501      49.794  34.883  30.134  0.00  0.00    +0.000 A 
ATOM     19  C57 084 A 501      50.637  34.092  30.996  0.00  0.00    +0.000 A 
ATOM     20  C58 084 A 501      50.830  34.478  32.366  0.00  0.00    +0.000 A 
ATOM     21  C59 084 A 501      50.188  35.649  32.885  0.00  0.00    +0.000 A 
ATOM     22  C60 084 A 501      49.352  36.439  32.027  0.00  0.00    +0.000 A 
ENDBRANCH  15  17
ENDBRANCH  13  15
ENDBRANCH   1   7
BRANCH   3  23
ATOM     23  C10 084 A 501      46.347  30.017  31.990  0.00  0.00    +0.000 C 
ATOM     24  C13 084 A 501      46.795  29.536  33.431  0.00  0.00    +0.000 C 
ATOM     25  C14 084 A 501      47.595  28.199  33.422  0.00  0.00    +0.000 C 
ATOM     26  N15 084 A 501      46.865  27.112  32.676  0.00  0.00    +0.000 NA
ATOM     27  C16 084 A 501      46.421  27.516  31.287  0.00  0.00    +0.000 C 
ATOM     28  C17 084 A 501      45.585  28.831  31.294  0.00  0.00    +0.000 C 
ATOM     29  H03 084 A 501      47.478  26.313  32.595  0.00  0.00    +0.000 HD
ENDBRANCH   3  23
BRANCH   5  30
ATOM     30  C11 084 A 501      42.356  33.067  31.388  0.00  0.00    +0.000 A 
ATOM     31  C28 084 A 501      41.331  32.607  32.254  0.00  0.00    +0.000 A 
ATOM     32  C29 084 A 501      39.960  33.011  32.059  0.00  0.00    +0.000 A 
ATOM     33  C30 084 A 501      39.645  33.910  30.937  0.00  0.00    +0.000 A 
ATOM     34  C31 084 A 501      40.670  34.374  30.062  0.00  0.00    +0.000 A 
ATOM     35  C32 084 A 501      42.004  33.957  30.287  0.00  0.00    +0.000 A 
BRANCH  32  36
ATOM     36  C44 084 A 501      38.866  32.500  33.008  0.00  0.00    +0.000 C 
ATOM     37  F45 084 A 501      38.589  31.276  32.664  0.00  0.00    +0.000 F 
ATOM     38  F46 084 A 501      37.814  33.257  32.865  0.00  0.00    +0.000 F 
ATOM     39  F47 084 A 501      39.228  32.531  34.278  0.00  0.00    +0.000 F 
ENDBRANCH  32  36
ENDBRANCH   5  30
TORSDOF 6
