MODEL 7
REMARK VINA RESULT:    -6.779      3.231      5.600
REMARK INTER + INTRA:         -11.490
REMARK INTER:                  -9.956
REMARK INTRA:                  -1.533
REMARK UNBOUND:                -1.540
REMARK  Name = 1A4G-ZMR.pdb
REMARK  10 active torsions:
REMARK  status: ('A' for Active; 'I' for Inactive)
REMARK    1  A    between atoms: NE_1  and  C4_10
REMARK    2  A    between atoms: C1_5  and  O1B_7
REMARK    3  A    between atoms: C1_5  and  C2_8
REMARK    4  A    between atoms: C5_11  and  N5_12
REMARK    5  A    between atoms: C6_13  and  C7_15
REMARK    6  A    between atoms: C7_15  and  O7_16
REMARK    7  A    between atoms: C7_15  and  C8_17
REMARK    8  A    between atoms: C8_17  and  O8_18
REMARK    9  A    between atoms: C8_17  and  C9_19
REMARK   10  A    between atoms: C9_19  and  O9_20
REMARK                            x       y       z     vdW  Elec       q    Type
REMARK                         _______ _______ _______ _____ _____    ______ ____
ROOT
ATOM      1  C2  ZMR A 466      -2.912  55.329  -8.832  0.00  0.00    +0.000 C 
ATOM      2  C3  ZMR A 466      -3.892  55.337  -9.750  0.00  0.00    +0.000 C 
ATOM      3  C4  ZMR A 466      -4.581  56.611 -10.133  0.00  0.00    +0.000 C 
ATOM      4  C5  ZMR A 466      -3.834  57.815  -9.687  0.00  0.00    +0.000 C 
ATOM      5  C6  ZMR A 466      -3.329  57.573  -8.233  0.00  0.00    +0.000 C 
ATOM      6  O6  ZMR A 466      -2.510  56.409  -8.188  0.00  0.00    +0.000 OA
ENDROOT
BRANCH   3   7
ATOM      7  NE  ZMR A 466      -4.868  56.710 -11.548  0.00  0.00    +0.000 N 
ATOM      8  CZ  ZMR A 466      -6.058  57.089 -12.005  0.00  0.00    +0.000 C 
ATOM      9  NH1 ZMR A 466      -7.098  57.261 -11.181  0.00  0.00    +0.000 NA
ATOM     10  NH2 ZMR A 466      -6.178  57.361 -13.302  0.00  0.00    +0.000 N 
ATOM     11  H01 ZMR A 466      -6.995  57.077 -10.194  0.00  0.00    +0.000 HD
ATOM     12  H02 ZMR A 466      -5.383  57.255 -13.915  0.00  0.00    +0.000 HD
ATOM     13  H03 ZMR A 466      -7.063  57.675 -13.672  0.00  0.00    +0.000 HD
ATOM     14  H05 ZMR A 466      -4.140  56.484 -12.211  0.00  0.00    +0.000 HD
ENDBRANCH   3   7
BRANCH   4  15
ATOM     15  N5  ZMR A 466      -4.701  58.985  -9.691  0.00  0.00    +0.000 N 
ATOM     16  C10 ZMR A 466      -4.398  60.132 -10.306  0.00  0.00    +0.000 C 
ATOM     17  O10 ZMR A 466      -3.312  60.373 -10.793  0.00  0.00    +0.000 OA
ATOM     18  C11 ZMR A 466      -5.533  61.133 -10.377  0.00  0.00    +0.000 C 
ATOM     19  H06 ZMR A 466      -5.583  58.925  -9.202  0.00  0.00    +0.000 HD
ENDBRANCH   4  15
BRANCH   1  20
ATOM     20  C1  ZMR A 466      -2.221  54.071  -8.502  0.00  0.00    +0.000 C 
ATOM     21  O1A ZMR A 466      -2.217  53.695  -7.220  0.00  0.00    +0.000 OA
BRANCH  20  22
ATOM     22  O1B ZMR A 466      -1.695  53.462  -9.379  0.00  0.00    +0.000 OA
ATOM     23  H04 ZMR A 466      -1.748  52.522  -9.193  0.00  0.00    +0.000 HD
ENDBRANCH  20  22
ENDBRANCH   1  20
BRANCH   5  24
ATOM     24  C7  ZMR A 466      -2.681  58.736  -7.497  0.00  0.00    +0.000 C 
BRANCH  24  25
ATOM     25  O7  ZMR A 466      -2.072  58.861  -8.409  0.00  0.00    +0.000 OA
ATOM     26  H07 ZMR A 466      -2.098  58.053  -8.926  0.00  0.00    +0.000 HD
ENDBRANCH  24  25
BRANCH  24  27
ATOM     27  C8  ZMR A 466      -2.182  58.444  -6.179  0.00  0.00    +0.000 C 
BRANCH  27  28
ATOM     28  O8  ZMR A 466      -3.361  58.584  -5.381  0.00  0.00    +0.000 OA
ATOM     29  H08 ZMR A 466      -3.262  59.336  -4.793  0.00  0.00    +0.000 HD
ENDBRANCH  27  28
BRANCH  27  30
ATOM     30  C9  ZMR A 466      -1.099  59.391  -5.665  0.00  0.00    +0.000 C 
BRANCH  30  31
ATOM     31  O9  ZMR A 466       0.062  59.307  -6.491  0.00  0.00    +0.000 OA
ATOM     32  H09 ZMR A 466       0.158  60.121  -6.991  0.00  0.00    +0.000 HD
ENDBRANCH  30  31
ENDBRANCH  27  30
ENDBRANCH  24  27
ENDBRANCH   5  24
TORSDOF 10
ENDMDL
