MODEL 2
REMARK VINA RESULT:    -7.644      2.158      4.653
REMARK INTER + INTRA:         -12.759
REMARK INTER:                 -11.246
REMARK INTRA:                  -1.512
REMARK UNBOUND:                -1.540
REMARK  Name = 1A4G-ZMR.pdb
REMARK  10 active torsions:
REMARK  status: ('A' for Active; 'I' for Inactive)
REMARK    1  A    between atoms: NE_1  and  C4_10
REMARK    2  A    between atoms: C1_5  and  O1B_7
REMARK    3  A    between atoms: C1_5  and  C2_8
REMARK    4  A    between atoms: C5_11  and  N5_12
REMARK    5  A    between atoms: C6_13  and  C7_15
REMARK    6  A    between atoms: C7_15  and  O7_16
REMARK    7  A    between atoms: C7_15  and  C8_17
REMARK    8  A    between atoms: C8_17  and  O8_18
REMARK    9  A    between atoms: C8_17  and  C9_19
REMARK   10  A    between atoms: C9_19  and  O9_20
REMARK                            x       y       z     vdW  Elec       q    Type
REMARK                         _______ _______ _______ _____ _____    ______ ____
ROOT
ATOM      1  C2  ZMR A 466      -5.322  57.855  -9.007  0.00  0.00    +0.000 C 
ATOM      2  C3  ZMR A 466      -5.409  56.680  -9.652  0.00  0.00    +0.000 C 
ATOM      3  C4  ZMR A 466      -4.290  55.684  -9.597  0.00  0.00    +0.000 C 
ATOM      4  C5  ZMR A 466      -3.322  55.980  -8.509  0.00  0.00    +0.000 C 
ATOM      5  C6  ZMR A 466      -3.044  57.513  -8.499  0.00  0.00    +0.000 C 
ATOM      6  O6  ZMR A 466      -4.261  58.230  -8.319  0.00  0.00    +0.000 OA
ENDROOT
BRANCH   3   7
ATOM      7  NE  ZMR A 466      -4.742  54.314  -9.489  0.00  0.00    +0.000 N 
ATOM      8  CZ  ZMR A 466      -4.222  53.337 -10.227  0.00  0.00    +0.000 C 
ATOM      9  NH1 ZMR A 466      -3.353  53.595 -11.211  0.00  0.00    +0.000 NA
ATOM     10  NH2 ZMR A 466      -4.535  52.081  -9.921  0.00  0.00    +0.000 N 
ATOM     11  H01 ZMR A 466      -3.099  54.549 -11.423  0.00  0.00    +0.000 HD
ATOM     12  H02 ZMR A 466      -5.171  51.890  -9.161  0.00  0.00    +0.000 HD
ATOM     13  H03 ZMR A 466      -4.135  51.318 -10.449  0.00  0.00    +0.000 HD
ATOM     14  H05 ZMR A 466      -5.476  54.091  -8.832  0.00  0.00    +0.000 HD
ENDBRANCH   3   7
BRANCH   4  15
ATOM     15  N5  ZMR A 466      -2.067  55.279  -8.738  0.00  0.00    +0.000 N 
ATOM     16  C10 ZMR A 466      -1.739  54.130  -8.141  0.00  0.00    +0.000 C 
ATOM     17  O10 ZMR A 466      -2.378  53.629  -7.238  0.00  0.00    +0.000 OA
ATOM     18  C11 ZMR A 466      -0.495  53.461  -8.691  0.00  0.00    +0.000 C 
ATOM     19  H06 ZMR A 466      -1.407  55.685  -9.385  0.00  0.00    +0.000 HD
ENDBRANCH   4  15
BRANCH   1  20
ATOM     20  C1  ZMR A 466      -6.452  58.800  -9.043  0.00  0.00    +0.000 C 
ATOM     21  O1A ZMR A 466      -7.553  58.410  -9.691  0.00  0.00    +0.000 OA
BRANCH  20  22
ATOM     22  O1B ZMR A 466      -6.328  59.858  -8.511  0.00  0.00    +0.000 OA
ATOM     23  H04 ZMR A 466      -5.547  59.846  -7.954  0.00  0.00    +0.000 HD
ENDBRANCH  20  22
ENDBRANCH   1  20
BRANCH   5  24
ATOM     24  C7  ZMR A 466      -1.951  58.037  -7.579  0.00  0.00    +0.000 C 
BRANCH  24  25
ATOM     25  O7  ZMR A 466      -2.315  57.283  -6.859  0.00  0.00    +0.000 OA
ATOM     26  H07 ZMR A 466      -2.682  57.726  -6.091  0.00  0.00    +0.000 HD
ENDBRANCH  24  25
BRANCH  24  27
ATOM     27  C8  ZMR A 466      -1.931  59.462  -7.377  0.00  0.00    +0.000 C 
BRANCH  27  28
ATOM     28  O8  ZMR A 466      -0.554  59.771  -7.608  0.00  0.00    +0.000 OA
ATOM     29  H08 ZMR A 466      -0.041  58.960  -7.624  0.00  0.00    +0.000 HD
ENDBRANCH  27  28
BRANCH  27  30
ATOM     30  C9  ZMR A 466      -2.334  59.929  -5.980  0.00  0.00    +0.000 C 
BRANCH  30  31
ATOM     31  O9  ZMR A 466      -3.745  59.803  -5.806  0.00  0.00    +0.000 OA
ATOM     32  H09 ZMR A 466      -3.974  59.999  -4.894  0.00  0.00    +0.000 HD
ENDBRANCH  30  31
ENDBRANCH  27  30
ENDBRANCH  24  27
ENDBRANCH   5  24
TORSDOF 10
ENDMDL
