MODEL 8
REMARK VINA RESULT:    -6.627      3.104      4.877
REMARK INTER + INTRA:         -11.267
REMARK INTER:                  -9.865
REMARK INTRA:                  -1.402
REMARK UNBOUND:                -1.540
REMARK  Name = 1A4G-ZMR.pdb
REMARK  10 active torsions:
REMARK  status: ('A' for Active; 'I' for Inactive)
REMARK    1  A    between atoms: NE_1  and  C4_10
REMARK    2  A    between atoms: C1_5  and  O1B_7
REMARK    3  A    between atoms: C1_5  and  C2_8
REMARK    4  A    between atoms: C5_11  and  N5_12
REMARK    5  A    between atoms: C6_13  and  C7_15
REMARK    6  A    between atoms: C7_15  and  O7_16
REMARK    7  A    between atoms: C7_15  and  C8_17
REMARK    8  A    between atoms: C8_17  and  O8_18
REMARK    9  A    between atoms: C8_17  and  C9_19
REMARK   10  A    between atoms: C9_19  and  O9_20
REMARK                            x       y       z     vdW  Elec       q    Type
REMARK                         _______ _______ _______ _____ _____    ______ ____
ROOT
ATOM      1  C2  ZMR A 466      -2.488  56.846  -8.189  0.00  0.00    +0.000 C 
ATOM      2  C3  ZMR A 466      -2.465  57.981  -8.906  0.00  0.00    +0.000 C 
ATOM      3  C4  ZMR A 466      -3.290  58.126 -10.149  0.00  0.00    +0.000 C 
ATOM      4  C5  ZMR A 466      -4.341  57.081 -10.256  0.00  0.00    +0.000 C 
ATOM      5  C6  ZMR A 466      -3.720  55.711  -9.851  0.00  0.00    +0.000 C 
ATOM      6  O6  ZMR A 466      -3.194  55.784  -8.529  0.00  0.00    +0.000 OA
ENDROOT
BRANCH   3   7
ATOM      7  NE  ZMR A 466      -3.886  59.436 -10.298  0.00  0.00    +0.000 N 
ATOM      8  CZ  ZMR A 466      -3.539  60.265 -11.279  0.00  0.00    +0.000 C 
ATOM      9  NH1 ZMR A 466      -2.517  59.987 -12.096  0.00  0.00    +0.000 NA
ATOM     10  NH2 ZMR A 466      -4.278  61.353 -11.475  0.00  0.00    +0.000 N 
ATOM     11  H01 ZMR A 466      -1.975  59.147 -11.959  0.00  0.00    +0.000 HD
ATOM     12  H02 ZMR A 466      -5.064  61.545 -10.871  0.00  0.00    +0.000 HD
ATOM     13  H03 ZMR A 466      -4.053  61.987 -12.228  0.00  0.00    +0.000 HD
ATOM     14  H05 ZMR A 466      -4.588  59.731  -9.635  0.00  0.00    +0.000 HD
ENDBRANCH   3   7
BRANCH   4  15
ATOM     15  N5  ZMR A 466      -4.829  56.986 -11.624  0.00  0.00    +0.000 N 
ATOM     16  C10 ZMR A 466      -6.099  57.207 -11.977  0.00  0.00    +0.000 C 
ATOM     17  O10 ZMR A 466      -7.006  57.360 -11.184  0.00  0.00    +0.000 OA
ATOM     18  C11 ZMR A 466      -6.340  57.278 -13.472  0.00  0.00    +0.000 C 
ATOM     19  H06 ZMR A 466      -4.170  56.739 -12.349  0.00  0.00    +0.000 HD
ENDBRANCH   4  15
BRANCH   1  20
ATOM     20  C1  ZMR A 466      -1.700  56.742  -6.948  0.00  0.00    +0.000 C 
ATOM     21  O1A ZMR A 466      -1.627  57.832  -6.180  0.00  0.00    +0.000 OA
BRANCH  20  22
ATOM     22  O1B ZMR A 466      -1.163  55.710  -6.698  0.00  0.00    +0.000 OA
ATOM     23  H04 ZMR A 466      -0.415  55.871  -6.119  0.00  0.00    +0.000 HD
ENDBRANCH  20  22
ENDBRANCH   1  20
BRANCH   5  24
ATOM     24  C7  ZMR A 466      -4.560  54.458 -10.045  0.00  0.00    +0.000 C 
BRANCH  24  25
ATOM     25  O7  ZMR A 466      -5.153  54.828  -9.190  0.00  0.00    +0.000 OA
ATOM     26  H07 ZMR A 466      -5.235  55.782  -9.246  0.00  0.00    +0.000 HD
ENDBRANCH  24  25
BRANCH  24  27
ATOM     27  C8  ZMR A 466      -3.833  53.217 -10.098  0.00  0.00    +0.000 C 
BRANCH  27  28
ATOM     28  O8  ZMR A 466      -3.362  53.095  -8.753  0.00  0.00    +0.000 OA
ATOM     29  H08 ZMR A 466      -2.888  53.892  -8.505  0.00  0.00    +0.000 HD
ENDBRANCH  27  28
BRANCH  27  30
ATOM     30  C9  ZMR A 466      -2.647  53.195 -11.060  0.00  0.00    +0.000 C 
BRANCH  30  31
ATOM     31  O9  ZMR A 466      -1.443  52.903 -10.352  0.00  0.00    +0.000 OA
ATOM     32  H09 ZMR A 466      -0.687  53.127 -10.900  0.00  0.00    +0.000 HD
ENDBRANCH  30  31
ENDBRANCH  27  30
ENDBRANCH  24  27
ENDBRANCH   5  24
TORSDOF 10
ENDMDL
