MODEL 4
REMARK VINA RESULT:    -7.018      2.444      4.932
REMARK INTER + INTRA:         -11.840
REMARK INTER:                 -11.519
REMARK INTRA:                  -0.321
REMARK UNBOUND:                -1.540
REMARK  Name = 1A4G-ZMR.pdb
REMARK  10 active torsions:
REMARK  status: ('A' for Active; 'I' for Inactive)
REMARK    1  A    between atoms: NE_1  and  C4_10
REMARK    2  A    between atoms: C1_5  and  O1B_7
REMARK    3  A    between atoms: C1_5  and  C2_8
REMARK    4  A    between atoms: C5_11  and  N5_12
REMARK    5  A    between atoms: C6_13  and  C7_15
REMARK    6  A    between atoms: C7_15  and  O7_16
REMARK    7  A    between atoms: C7_15  and  C8_17
REMARK    8  A    between atoms: C8_17  and  O8_18
REMARK    9  A    between atoms: C8_17  and  C9_19
REMARK   10  A    between atoms: C9_19  and  O9_20
REMARK                            x       y       z     vdW  Elec       q    Type
REMARK                         _______ _______ _______ _____ _____    ______ ____
ROOT
ATOM      1  C2  ZMR A 466      -2.839  57.536  -7.469  0.00  0.00    +0.000 C 
ATOM      2  C3  ZMR A 466      -3.697  57.899  -8.437  0.00  0.00    +0.000 C 
ATOM      3  C4  ZMR A 466      -4.103  56.935  -9.510  0.00  0.00    +0.000 C 
ATOM      4  C5  ZMR A 466      -3.764  55.529  -9.166  0.00  0.00    +0.000 C 
ATOM      5  C6  ZMR A 466      -2.332  55.503  -8.553  0.00  0.00    +0.000 C 
ATOM      6  O6  ZMR A 466      -2.276  56.345  -7.406  0.00  0.00    +0.000 OA
ENDROOT
BRANCH   3   7
ATOM      7  NE  ZMR A 466      -5.502  57.026  -9.869  0.00  0.00    +0.000 N 
ATOM      8  CZ  ZMR A 466      -5.900  57.441 -11.068  0.00  0.00    +0.000 C 
ATOM      9  NH1 ZMR A 466      -5.031  57.932 -11.958  0.00  0.00    +0.000 NA
ATOM     10  NH2 ZMR A 466      -7.182  57.293 -11.393  0.00  0.00    +0.000 N 
ATOM     11  H01 ZMR A 466      -4.055  58.018 -11.716  0.00  0.00    +0.000 HD
ATOM     12  H02 ZMR A 466      -7.829  56.898 -10.726  0.00  0.00    +0.000 HD
ATOM     13  H03 ZMR A 466      -7.507  57.577 -12.306  0.00  0.00    +0.000 HD
ATOM     14  H05 ZMR A 466      -6.199  56.766  -9.186  0.00  0.00    +0.000 HD
ENDBRANCH   3   7
BRANCH   4  15
ATOM     15  N5  ZMR A 466      -3.777  54.695 -10.359  0.00  0.00    +0.000 N 
ATOM     16  C10 ZMR A 466      -3.075  54.967 -11.463  0.00  0.00    +0.000 C 
ATOM     17  O10 ZMR A 466      -2.476  56.007 -11.646  0.00  0.00    +0.000 OA
ATOM     18  C11 ZMR A 466      -3.056  53.855 -12.493  0.00  0.00    +0.000 C 
ATOM     19  H06 ZMR A 466      -4.349  53.863 -10.351  0.00  0.00    +0.000 HD
ENDBRANCH   4  15
BRANCH   1  20
ATOM     20  C1  ZMR A 466      -2.486  58.489  -6.402  0.00  0.00    +0.000 C 
ATOM     21  O1A ZMR A 466      -3.387  58.681  -5.434  0.00  0.00    +0.000 OA
BRANCH  20  22
ATOM     22  O1B ZMR A 466      -1.435  59.045  -6.458  0.00  0.00    +0.000 OA
ATOM     23  H04 ZMR A 466      -0.850  58.564  -7.046  0.00  0.00    +0.000 HD
ENDBRANCH  20  22
ENDBRANCH   1  20
BRANCH   5  24
ATOM     24  C7  ZMR A 466      -1.696  54.149  -8.279  0.00  0.00    +0.000 C 
BRANCH  24  25
ATOM     25  O7  ZMR A 466      -1.442  54.565  -7.288  0.00  0.00    +0.000 OA
ATOM     26  H07 ZMR A 466      -1.582  55.514  -7.294  0.00  0.00    +0.000 HD
ENDBRANCH  24  25
BRANCH  24  27
ATOM     27  C8  ZMR A 466      -0.759  53.683  -9.267  0.00  0.00    +0.000 C 
BRANCH  27  28
ATOM     28  O8  ZMR A 466      -0.430  52.383  -8.770  0.00  0.00    +0.000 OA
ATOM     29  H08 ZMR A 466      -1.219  51.963  -8.422  0.00  0.00    +0.000 HD
ENDBRANCH  27  28
BRANCH  27  30
ATOM     30  C9  ZMR A 466       0.513  54.517  -9.406  0.00  0.00    +0.000 C 
BRANCH  30  31
ATOM     31  O9  ZMR A 466       1.496  53.796 -10.149  0.00  0.00    +0.000 OA
ATOM     32  H09 ZMR A 466       2.355  53.905  -9.734  0.00  0.00    +0.000 HD
ENDBRANCH  30  31
ENDBRANCH  27  30
ENDBRANCH  24  27
ENDBRANCH   5  24
TORSDOF 10
ENDMDL
