MODEL 9
REMARK VINA RESULT:    -4.280      9.862     11.541
REMARK INTER + INTRA:          -7.820
REMARK INTER:                  -6.403
REMARK INTRA:                  -1.417
REMARK UNBOUND:                -1.539
REMARK  Name = 1A4G-ZMR.pdb
REMARK  10 active torsions:
REMARK  status: ('A' for Active; 'I' for Inactive)
REMARK    1  A    between atoms: NE_1  and  C4_10
REMARK    2  A    between atoms: C1_5  and  O1B_7
REMARK    3  A    between atoms: C1_5  and  C2_8
REMARK    4  A    between atoms: C5_11  and  N5_12
REMARK    5  A    between atoms: C6_13  and  C7_15
REMARK    6  A    between atoms: C7_15  and  O7_16
REMARK    7  A    between atoms: C7_15  and  C8_17
REMARK    8  A    between atoms: C8_17  and  O8_18
REMARK    9  A    between atoms: C8_17  and  C9_19
REMARK   10  A    between atoms: C9_19  and  O9_20
REMARK                            x       y       z     vdW  Elec       q    Type
REMARK                         _______ _______ _______ _____ _____    ______ ____
ROOT
ATOM      1  C2  ZMR A 466      11.601  50.981  13.557  0.00  0.00    +0.000 C 
ATOM      2  C3  ZMR A 466      10.698  50.333  14.311  0.00  0.00    +0.000 C 
ATOM      3  C4  ZMR A 466      10.553  48.843  14.233  0.00  0.00    +0.000 C 
ATOM      4  C5  ZMR A 466      11.708  48.197  13.557  0.00  0.00    +0.000 C 
ATOM      5  C6  ZMR A 466      12.083  49.042  12.303  0.00  0.00    +0.000 C 
ATOM      6  O6  ZMR A 466      12.389  50.379  12.688  0.00  0.00    +0.000 OA
ENDROOT
BRANCH   3   7
ATOM      7  NE  ZMR A 466      10.325  48.217  15.517  0.00  0.00    +0.000 N 
ATOM      8  CZ  ZMR A 466       9.346  47.338  15.712  0.00  0.00    +0.000 C 
ATOM      9  NH1 ZMR A 466       8.430  47.095  14.768  0.00  0.00    +0.000 NA
ATOM     10  NH2 ZMR A 466       9.334  46.650  16.851  0.00  0.00    +0.000 N 
ATOM     11  H01 ZMR A 466       8.458  47.602  13.895  0.00  0.00    +0.000 HD
ATOM     12  H02 ZMR A 466      10.043  46.819  17.550  0.00  0.00    +0.000 HD
ATOM     13  H03 ZMR A 466       8.616  45.959  17.015  0.00  0.00    +0.000 HD
ATOM     14  H05 ZMR A 466      10.929  48.454  16.290  0.00  0.00    +0.000 HD
ENDBRANCH   3   7
BRANCH   4  15
ATOM     15  N5  ZMR A 466      11.360  46.851  13.126  0.00  0.00    +0.000 N 
ATOM     16  C10 ZMR A 466      11.942  45.745  13.599  0.00  0.00    +0.000 C 
ATOM     17  O10 ZMR A 466      12.920  45.750  14.319  0.00  0.00    +0.000 OA
ATOM     18  C11 ZMR A 466      11.274  44.449  13.186  0.00  0.00    +0.000 C 
ATOM     19  H06 ZMR A 466      10.635  46.747  12.430  0.00  0.00    +0.000 HD
ENDBRANCH   4  15
BRANCH   1  20
ATOM     20  C1  ZMR A 466      11.753  52.441  13.683  0.00  0.00    +0.000 C 
ATOM     21  O1A ZMR A 466      12.921  52.895  14.144  0.00  0.00    +0.000 OA
BRANCH  20  22
ATOM     22  O1B ZMR A 466      10.836  53.138  13.382  0.00  0.00    +0.000 OA
ATOM     23  H04 ZMR A 466      10.594  53.689  14.130  0.00  0.00    +0.000 HD
ENDBRANCH  20  22
ENDBRANCH   1  20
BRANCH   5  24
ATOM     24  C7  ZMR A 466      13.131  48.485  11.351  0.00  0.00    +0.000 C 
BRANCH  24  25
ATOM     25  O7  ZMR A 466      13.673  49.430  11.533  0.00  0.00    +0.000 OA
ATOM     26  H07 ZMR A 466      14.072  49.732  10.715  0.00  0.00    +0.000 HD
ENDBRANCH  24  25
BRANCH  24  27
ATOM     27  C8  ZMR A 466      12.641  48.021  10.080  0.00  0.00    +0.000 C 
BRANCH  27  28
ATOM     28  O8  ZMR A 466      11.234  48.244  10.208  0.00  0.00    +0.000 OA
ATOM     29  H08 ZMR A 466      11.007  48.333  11.137  0.00  0.00    +0.000 HD
ENDBRANCH  27  28
BRANCH  27  30
ATOM     30  C9  ZMR A 466      12.901  46.546   9.779  0.00  0.00    +0.000 C 
BRANCH  30  31
ATOM     31  O9  ZMR A 466      11.729  45.775  10.042  0.00  0.00    +0.000 OA
ATOM     32  H09 ZMR A 466      11.004  46.103   9.505  0.00  0.00    +0.000 HD
ENDBRANCH  30  31
ENDBRANCH  27  30
ENDBRANCH  24  27
ENDBRANCH   5  24
TORSDOF 10
ENDMDL
