MODEL 6
REMARK VINA RESULT:    -4.510     10.266     11.732
REMARK INTER + INTRA:          -8.157
REMARK INTER:                  -6.371
REMARK INTRA:                  -1.786
REMARK UNBOUND:                -1.539
REMARK  Name = 1A4G-ZMR.pdb
REMARK  10 active torsions:
REMARK  status: ('A' for Active; 'I' for Inactive)
REMARK    1  A    between atoms: NE_1  and  C4_10
REMARK    2  A    between atoms: C1_5  and  O1B_7
REMARK    3  A    between atoms: C1_5  and  C2_8
REMARK    4  A    between atoms: C5_11  and  N5_12
REMARK    5  A    between atoms: C6_13  and  C7_15
REMARK    6  A    between atoms: C7_15  and  O7_16
REMARK    7  A    between atoms: C7_15  and  C8_17
REMARK    8  A    between atoms: C8_17  and  O8_18
REMARK    9  A    between atoms: C8_17  and  C9_19
REMARK   10  A    between atoms: C9_19  and  O9_20
REMARK                            x       y       z     vdW  Elec       q    Type
REMARK                         _______ _______ _______ _____ _____    ______ ____
ROOT
ATOM      1  C2  ZMR A 466      11.455  48.606  12.364  0.00  0.00    +0.000 C 
ATOM      2  C3  ZMR A 466      10.678  47.586  12.765  0.00  0.00    +0.000 C 
ATOM      3  C4  ZMR A 466      10.063  47.574  14.131  0.00  0.00    +0.000 C 
ATOM      4  C5  ZMR A 466      10.104  48.909  14.783  0.00  0.00    +0.000 C 
ATOM      5  C6  ZMR A 466      11.508  49.538  14.532  0.00  0.00    +0.000 C 
ATOM      6  O6  ZMR A 466      11.756  49.636  13.132  0.00  0.00    +0.000 OA
ENDROOT
BRANCH   3   7
ATOM      7  NE  ZMR A 466       8.710  47.063  14.151  0.00  0.00    +0.000 N 
ATOM      8  CZ  ZMR A 466       8.299  46.180  15.057  0.00  0.00    +0.000 C 
ATOM      9  NH1 ZMR A 466       9.155  45.610  15.912  0.00  0.00    +0.000 NA
ATOM     10  NH2 ZMR A 466       6.996  45.924  15.142  0.00  0.00    +0.000 N 
ATOM     11  H01 ZMR A 466      10.140  45.828  15.860  0.00  0.00    +0.000 HD
ATOM     12  H02 ZMR A 466       6.351  46.377  14.512  0.00  0.00    +0.000 HD
ATOM     13  H03 ZMR A 466       6.653  45.277  15.838  0.00  0.00    +0.000 HD
ATOM     14  H05 ZMR A 466       8.055  47.387  13.454  0.00  0.00    +0.000 HD
ENDBRANCH   3   7
BRANCH   4  15
ATOM     15  N5  ZMR A 466       9.900  48.783  16.218  0.00  0.00    +0.000 N 
ATOM     16  C10 ZMR A 466       8.990  49.482  16.903  0.00  0.00    +0.000 C 
ATOM     17  O10 ZMR A 466       8.346  50.399  16.434  0.00  0.00    +0.000 OA
ATOM     18  C11 ZMR A 466       8.791  49.033  18.337  0.00  0.00    +0.000 C 
ATOM     19  H06 ZMR A 466      10.479  48.129  16.726  0.00  0.00    +0.000 HD
ENDBRANCH   4  15
BRANCH   1  20
ATOM     20  C1  ZMR A 466      12.015  48.615  11.002  0.00  0.00    +0.000 C 
ATOM     21  O1A ZMR A 466      13.180  49.244  10.825  0.00  0.00    +0.000 OA
BRANCH  20  22
ATOM     22  O1B ZMR A 466      11.405  48.079  10.131  0.00  0.00    +0.000 OA
ATOM     23  H04 ZMR A 466      11.626  48.484   9.290  0.00  0.00    +0.000 HD
ENDBRANCH  20  22
ENDBRANCH   1  20
BRANCH   5  24
ATOM     24  C7  ZMR A 466      11.849  50.836  15.247  0.00  0.00    +0.000 C 
BRANCH  24  25
ATOM     25  O7  ZMR A 466      10.935  51.237  14.775  0.00  0.00    +0.000 OA
ATOM     26  H07 ZMR A 466      10.200  50.644  14.946  0.00  0.00    +0.000 HD
ENDBRANCH  24  25
BRANCH  24  27
ATOM     27  C8  ZMR A 466      13.188  51.327  15.052  0.00  0.00    +0.000 C 
BRANCH  27  28
ATOM     28  O8  ZMR A 466      13.047  52.097  13.855  0.00  0.00    +0.000 OA
ATOM     29  H08 ZMR A 466      13.549  51.686  13.148  0.00  0.00    +0.000 HD
ENDBRANCH  27  28
BRANCH  27  30
ATOM     30  C9  ZMR A 466      14.255  50.253  14.847  0.00  0.00    +0.000 C 
BRANCH  30  31
ATOM     31  O9  ZMR A 466      14.680  50.234  13.485  0.00  0.00    +0.000 OA
ATOM     32  H09 ZMR A 466      15.312  49.522  13.357  0.00  0.00    +0.000 HD
ENDBRANCH  30  31
ENDBRANCH  27  30
ENDBRANCH  24  27
ENDBRANCH   5  24
TORSDOF 10
ENDMDL
