MODEL 7
REMARK VINA RESULT:    -6.719      3.223      6.425
REMARK INTER + INTRA:         -11.387
REMARK INTER:                 -10.881
REMARK INTRA:                  -0.506
REMARK UNBOUND:                -1.526
REMARK  Name = 1a4g_na/1A4G-ZMR.pdb
REMARK  10 active torsions:
REMARK  status: ('A' for Active; 'I' for Inactive)
REMARK    1  A    between atoms: NE_1  and  C4_10
REMARK    2  A    between atoms: C1_5  and  O1B_7
REMARK    3  A    between atoms: C1_5  and  C2_8
REMARK    4  A    between atoms: C5_11  and  N5_12
REMARK    5  A    between atoms: C6_13  and  C7_15
REMARK    6  A    between atoms: C7_15  and  O7_16
REMARK    7  A    between atoms: C7_15  and  C8_17
REMARK    8  A    between atoms: C8_17  and  O8_18
REMARK    9  A    between atoms: C8_17  and  C9_19
REMARK   10  A    between atoms: C9_19  and  O9_20
REMARK                            x       y       z     vdW  Elec       q    Type
REMARK                         _______ _______ _______ _____ _____    ______ ____
ROOT
ATOM      1  C2  ZMR A 466      -4.677  53.602  -9.403  0.00  0.00    +0.000 C 
ATOM      2  C3  ZMR A 466      -5.299  54.791  -9.462  0.00  0.00    +0.000 C 
ATOM      3  C4  ZMR A 466      -4.535  56.070  -9.305  0.00  0.00    +0.000 C 
ATOM      4  C5  ZMR A 466      -3.069  55.877  -9.454  0.00  0.00    +0.000 C 
ATOM      5  C6  ZMR A 466      -2.660  54.589  -8.679  0.00  0.00    +0.000 C 
ATOM      6  O6  ZMR A 466      -3.385  53.467  -9.176  0.00  0.00    +0.000 OA
ENDROOT
BRANCH   3   7
ATOM      7  NE  ZMR A 466      -4.981  57.122 -10.194  0.00  0.00    +0.000 N 
ATOM      8  CZ  ZMR A 466      -5.866  58.041  -9.816  0.00  0.00    +0.000 C 
ATOM      9  NH1 ZMR A 466      -6.497  57.957  -8.639  0.00  0.00    +0.000 NA
ATOM     10  NH2 ZMR A 466      -6.061  59.091 -10.608  0.00  0.00    +0.000 N 
ATOM     11  H01 ZMR A 466      -6.326  57.171  -8.030  0.00  0.00    +0.000 HD
ATOM     12  H02 ZMR A 466      -5.563  59.163 -11.483  0.00  0.00    +0.000 HD
ATOM     13  H03 ZMR A 466      -6.709  59.816 -10.335  0.00  0.00    +0.000 HD
ATOM     14  H05 ZMR A 466      -4.609  57.159 -11.132  0.00  0.00    +0.000 HD
ENDBRANCH   3   7
BRANCH   4  15
ATOM     15  N5  ZMR A 466      -2.345  57.008  -8.895  0.00  0.00    +0.000 N 
ATOM     16  C10 ZMR A 466      -2.710  57.646  -7.778  0.00  0.00    +0.000 C 
ATOM     17  O10 ZMR A 466      -3.760  57.450  -7.199  0.00  0.00    +0.000 OA
ATOM     18  C11 ZMR A 466      -1.695  58.641  -7.254  0.00  0.00    +0.000 C 
ATOM     19  H06 ZMR A 466      -1.519  57.330  -9.378  0.00  0.00    +0.000 HD
ENDBRANCH   4  15
BRANCH   1  20
ATOM     20  C1  ZMR A 466      -5.444  52.359  -9.600  0.00  0.00    +0.000 C 
ATOM     21  O1A ZMR A 466      -6.770  52.431  -9.458  0.00  0.00    +0.000 OA
BRANCH  20  22
ATOM     22  O1B ZMR A 466      -4.852  51.360  -9.861  0.00  0.00    +0.000 OA
ATOM     23  H04 ZMR A 466      -3.978  51.392  -9.467  0.00  0.00    +0.000 HD
ENDBRANCH  20  22
ENDBRANCH   1  20
BRANCH   5  24
ATOM     24  C7  ZMR A 466      -1.178  54.275  -8.543  0.00  0.00    +0.000 C 
BRANCH  24  25
ATOM     25  O7  ZMR A 466      -1.195  54.979  -7.693  0.00  0.00    +0.000 OA
ATOM     26  H07 ZMR A 466      -0.941  55.853  -7.996  0.00  0.00    +0.000 HD
ENDBRANCH  24  25
BRANCH  24  27
ATOM     27  C8  ZMR A 466      -0.395  54.414  -9.743  0.00  0.00    +0.000 C 
BRANCH  27  28
ATOM     28  O8  ZMR A 466      -0.935  53.378 -10.568  0.00  0.00    +0.000 OA
ATOM     29  H08 ZMR A 466      -1.564  53.756 -11.187  0.00  0.00    +0.000 HD
ENDBRANCH  27  28
BRANCH  27  30
ATOM     30  C9  ZMR A 466       1.108  54.201  -9.570  0.00  0.00    +0.000 C 
BRANCH  30  31
ATOM     31  O9  ZMR A 466       1.613  55.058  -8.547  0.00  0.00    +0.000 OA
ATOM     32  H09 ZMR A 466       1.235  54.804  -7.701  0.00  0.00    +0.000 HD
ENDBRANCH  30  31
ENDBRANCH  27  30
ENDBRANCH  24  27
ENDBRANCH   5  24
TORSDOF 10
ENDMDL
