MODEL 3
REMARK VINA RESULT:    -4.665      9.337     10.576
REMARK INTER + INTRA:          -8.385
REMARK INTER:                  -6.847
REMARK INTRA:                  -1.537
REMARK UNBOUND:                -1.539
REMARK  Name = 1A4G-ZMR.pdb
REMARK  10 active torsions:
REMARK  status: ('A' for Active; 'I' for Inactive)
REMARK    1  A    between atoms: NE_1  and  C4_10
REMARK    2  A    between atoms: C1_5  and  O1B_7
REMARK    3  A    between atoms: C1_5  and  C2_8
REMARK    4  A    between atoms: C5_11  and  N5_12
REMARK    5  A    between atoms: C6_13  and  C7_15
REMARK    6  A    between atoms: C7_15  and  O7_16
REMARK    7  A    between atoms: C7_15  and  C8_17
REMARK    8  A    between atoms: C8_17  and  O8_18
REMARK    9  A    between atoms: C8_17  and  C9_19
REMARK   10  A    between atoms: C9_19  and  O9_20
REMARK                            x       y       z     vdW  Elec       q    Type
REMARK                         _______ _______ _______ _____ _____    ______ ____
ROOT
ATOM      1  C2  ZMR A 466      12.232  48.841  11.469  0.00  0.00    +0.000 C 
ATOM      2  C3  ZMR A 466      12.172  50.134  11.829  0.00  0.00    +0.000 C 
ATOM      3  C4  ZMR A 466      11.718  50.533  13.200  0.00  0.00    +0.000 C 
ATOM      4  C5  ZMR A 466      11.716  49.391  14.151  0.00  0.00    +0.000 C 
ATOM      5  C6  ZMR A 466      11.116  48.148  13.429  0.00  0.00    +0.000 C 
ATOM      6  O6  ZMR A 466      11.874  47.848  12.260  0.00  0.00    +0.000 OA
ENDROOT
BRANCH   3   7
ATOM      7  NE  ZMR A 466      12.471  51.634  13.761  0.00  0.00    +0.000 N 
ATOM      8  CZ  ZMR A 466      11.937  52.839  13.940  0.00  0.00    +0.000 C 
ATOM      9  NH1 ZMR A 466      10.717  53.135  13.478  0.00  0.00    +0.000 NA
ATOM     10  NH2 ZMR A 466      12.619  53.731  14.652  0.00  0.00    +0.000 N 
ATOM     11  H01 ZMR A 466      10.192  52.446  12.959  0.00  0.00    +0.000 HD
ATOM     12  H02 ZMR A 466      13.528  53.494  15.021  0.00  0.00    +0.000 HD
ATOM     13  H03 ZMR A 466      12.227  54.646  14.825  0.00  0.00    +0.000 HD
ATOM     14  H05 ZMR A 466      13.434  51.483  14.025  0.00  0.00    +0.000 HD
ENDBRANCH   3   7
BRANCH   4  15
ATOM     15  N5  ZMR A 466      10.895  49.696  15.314  0.00  0.00    +0.000 N 
ATOM     16  C10 ZMR A 466      11.378  50.203  16.452  0.00  0.00    +0.000 C 
ATOM     17  O10 ZMR A 466      12.563  50.320  16.692  0.00  0.00    +0.000 OA
ATOM     18  C11 ZMR A 466      10.325  50.655  17.444  0.00  0.00    +0.000 C 
ATOM     19  H06 ZMR A 466       9.903  49.515  15.257  0.00  0.00    +0.000 HD
ENDBRANCH   4  15
BRANCH   1  20
ATOM     20  C1  ZMR A 466      12.721  48.472  10.129  0.00  0.00    +0.000 C 
ATOM     21  O1A ZMR A 466      12.042  47.529   9.471  0.00  0.00    +0.000 OA
BRANCH  20  22
ATOM     22  O1B ZMR A 466      13.693  49.014   9.707  0.00  0.00    +0.000 OA
ATOM     23  H04 ZMR A 466      14.172  48.412   9.134  0.00  0.00    +0.000 HD
ENDBRANCH  20  22
ENDBRANCH   1  20
BRANCH   5  24
ATOM     24  C7  ZMR A 466      10.853  46.897  14.254  0.00  0.00    +0.000 C 
BRANCH  24  25
ATOM     25  O7  ZMR A 466      11.789  46.513  13.812  0.00  0.00    +0.000 OA
ATOM     26  H07 ZMR A 466      12.536  46.990  14.179  0.00  0.00    +0.000 HD
ENDBRANCH  24  25
BRANCH  24  27
ATOM     27  C8  ZMR A 466       9.546  46.314  14.110  0.00  0.00    +0.000 C 
BRANCH  27  28
ATOM     28  O8  ZMR A 466       9.469  46.109  12.697  0.00  0.00    +0.000 OA
ATOM     29  H08 ZMR A 466      10.348  46.173  12.315  0.00  0.00    +0.000 HD
ENDBRANCH  27  28
BRANCH  27  30
ATOM     30  C9  ZMR A 466       8.383  47.194  14.565  0.00  0.00    +0.000 C 
BRANCH  30  31
ATOM     31  O9  ZMR A 466       8.641  47.718  15.867  0.00  0.00    +0.000 OA
ATOM     32  H09 ZMR A 466       8.612  48.677  15.837  0.00  0.00    +0.000 HD
ENDBRANCH  30  31
ENDBRANCH  27  30
ENDBRANCH  24  27
ENDBRANCH   5  24
TORSDOF 10
ENDMDL
