MODEL 2
REMARK VINA RESULT:    -7.788      2.085      4.604
REMARK INTER + INTRA:         -12.957
REMARK INTER:                 -11.801
REMARK INTRA:                  -1.156
REMARK UNBOUND:                -1.526
REMARK  Name = 1a4g_na/1A4G-ZMR.pdb
REMARK  10 active torsions:
REMARK  status: ('A' for Active; 'I' for Inactive)
REMARK    1  A    between atoms: NE_1  and  C4_10
REMARK    2  A    between atoms: C1_5  and  O1B_7
REMARK    3  A    between atoms: C1_5  and  C2_8
REMARK    4  A    between atoms: C5_11  and  N5_12
REMARK    5  A    between atoms: C6_13  and  C7_15
REMARK    6  A    between atoms: C7_15  and  O7_16
REMARK    7  A    between atoms: C7_15  and  C8_17
REMARK    8  A    between atoms: C8_17  and  O8_18
REMARK    9  A    between atoms: C8_17  and  C9_19
REMARK   10  A    between atoms: C9_19  and  O9_20
REMARK                            x       y       z     vdW  Elec       q    Type
REMARK                         _______ _______ _______ _____ _____    ______ ____
ROOT
ATOM      1  C2  ZMR A 466      -5.299  57.754  -9.049  0.00  0.00    +0.000 C 
ATOM      2  C3  ZMR A 466      -5.407  56.570  -9.675  0.00  0.00    +0.000 C 
ATOM      3  C4  ZMR A 466      -4.295  55.566  -9.625  0.00  0.00    +0.000 C 
ATOM      4  C5  ZMR A 466      -3.305  55.870  -8.560  0.00  0.00    +0.000 C 
ATOM      5  C6  ZMR A 466      -3.014  57.400  -8.577  0.00  0.00    +0.000 C 
ATOM      6  O6  ZMR A 466      -4.223  58.130  -8.385  0.00  0.00    +0.000 OA
ENDROOT
BRANCH   3   7
ATOM      7  NE  ZMR A 466      -4.755  54.201  -9.490  0.00  0.00    +0.000 N 
ATOM      8  CZ  ZMR A 466      -4.267  53.212 -10.233  0.00  0.00    +0.000 C 
ATOM      9  NH1 ZMR A 466      -3.426  53.451 -11.245  0.00  0.00    +0.000 NA
ATOM     10  NH2 ZMR A 466      -4.582  51.962  -9.904  0.00  0.00    +0.000 N 
ATOM     11  H01 ZMR A 466      -3.170  54.400 -11.474  0.00  0.00    +0.000 HD
ATOM     12  H02 ZMR A 466      -5.197  51.785  -9.123  0.00  0.00    +0.000 HD
ATOM     13  H03 ZMR A 466      -4.205  51.190 -10.435  0.00  0.00    +0.000 HD
ATOM     14  H05 ZMR A 466      -5.471  53.992  -8.809  0.00  0.00    +0.000 HD
ENDBRANCH   3   7
BRANCH   4  15
ATOM     15  N5  ZMR A 466      -2.060  55.155  -8.801  0.00  0.00    +0.000 N 
ATOM     16  C10 ZMR A 466      -1.737  54.004  -8.205  0.00  0.00    +0.000 C 
ATOM     17  O10 ZMR A 466      -2.371  53.512  -7.294  0.00  0.00    +0.000 OA
ATOM     18  C11 ZMR A 466      -0.507  53.321  -8.768  0.00  0.00    +0.000 C 
ATOM     19  H06 ZMR A 466      -1.403  55.553  -9.457  0.00  0.00    +0.000 HD
ENDBRANCH   4  15
BRANCH   1  20
ATOM     20  C1  ZMR A 466      -6.422  58.707  -9.078  0.00  0.00    +0.000 C 
ATOM     21  O1A ZMR A 466      -6.177  59.950  -8.654  0.00  0.00    +0.000 OA
BRANCH  20  22
ATOM     22  O1B ZMR A 466      -7.483  58.327  -9.461  0.00  0.00    +0.000 OA
ATOM     23  H04 ZMR A 466      -7.553  58.472 -10.407  0.00  0.00    +0.000 HD
ENDBRANCH  20  22
ENDBRANCH   1  20
BRANCH   5  24
ATOM     24  C7  ZMR A 466      -1.901  57.928  -7.685  0.00  0.00    +0.000 C 
BRANCH  24  25
ATOM     25  O7  ZMR A 466      -2.131  57.066  -7.035  0.00  0.00    +0.000 OA
ATOM     26  H07 ZMR A 466      -2.213  56.274  -7.569  0.00  0.00    +0.000 HD
ENDBRANCH  24  25
BRANCH  24  27
ATOM     27  C8  ZMR A 466      -1.996  59.316  -7.318  0.00  0.00    +0.000 C 
BRANCH  27  28
ATOM     28  O8  ZMR A 466      -0.676  59.787  -7.605  0.00  0.00    +0.000 OA
ATOM     29  H08 ZMR A 466      -0.209  59.133  -8.130  0.00  0.00    +0.000 HD
ENDBRANCH  27  28
BRANCH  27  30
ATOM     30  C9  ZMR A 466      -2.328  59.583  -5.851  0.00  0.00    +0.000 C 
BRANCH  30  31
ATOM     31  O9  ZMR A 466      -3.452  58.801  -5.450  0.00  0.00    +0.000 OA
ATOM     32  H09 ZMR A 466      -4.139  58.861  -6.119  0.00  0.00    +0.000 HD
ENDBRANCH  30  31
ENDBRANCH  27  30
ENDBRANCH  24  27
ENDBRANCH   5  24
TORSDOF 10
ENDMDL
