MODEL 3
REMARK VINA RESULT:    -7.344      3.331      5.271
REMARK INTER + INTRA:         -12.304
REMARK INTER:                 -10.959
REMARK INTRA:                  -1.346
REMARK UNBOUND:                -1.526
REMARK  Name = 1a4g_na/1A4G-ZMR.pdb
REMARK  10 active torsions:
REMARK  status: ('A' for Active; 'I' for Inactive)
REMARK    1  A    between atoms: NE_1  and  C4_10
REMARK    2  A    between atoms: C1_5  and  O1B_7
REMARK    3  A    between atoms: C1_5  and  C2_8
REMARK    4  A    between atoms: C5_11  and  N5_12
REMARK    5  A    between atoms: C6_13  and  C7_15
REMARK    6  A    between atoms: C7_15  and  O7_16
REMARK    7  A    between atoms: C7_15  and  C8_17
REMARK    8  A    between atoms: C8_17  and  O8_18
REMARK    9  A    between atoms: C8_17  and  C9_19
REMARK   10  A    between atoms: C9_19  and  O9_20
REMARK                            x       y       z     vdW  Elec       q    Type
REMARK                         _______ _______ _______ _____ _____    ______ ____
ROOT
ATOM      1  C2  ZMR A 466      -3.998  54.684  -9.739  0.00  0.00    +0.000 C 
ATOM      2  C3  ZMR A 466      -3.264  55.334  -8.822  0.00  0.00    +0.000 C 
ATOM      3  C4  ZMR A 466      -3.372  56.820  -8.657  0.00  0.00    +0.000 C 
ATOM      4  C5  ZMR A 466      -4.581  57.376  -9.318  0.00  0.00    +0.000 C 
ATOM      5  C6  ZMR A 466      -4.734  56.703 -10.715  0.00  0.00    +0.000 C 
ATOM      6  O6  ZMR A 466      -4.828  55.289 -10.568  0.00  0.00    +0.000 OA
ENDROOT
BRANCH   3   7
ATOM      7  NE  ZMR A 466      -3.328  57.253  -7.277  0.00  0.00    +0.000 N 
ATOM      8  CZ  ZMR A 466      -2.541  58.245  -6.871  0.00  0.00    +0.000 C 
ATOM      9  NH1 ZMR A 466      -1.643  58.802  -7.691  0.00  0.00    +0.000 NA
ATOM     10  NH2 ZMR A 466      -2.713  58.724  -5.641  0.00  0.00    +0.000 N 
ATOM     11  H01 ZMR A 466      -1.533  58.452  -8.632  0.00  0.00    +0.000 HD
ATOM     12  H02 ZMR A 466      -3.411  58.317  -5.035  0.00  0.00    +0.000 HD
ATOM     13  H03 ZMR A 466      -2.147  59.493  -5.315  0.00  0.00    +0.000 HD
ATOM     14  H05 ZMR A 466      -3.914  56.786  -6.599  0.00  0.00    +0.000 HD
ENDBRANCH   3   7
BRANCH   4  15
ATOM     15  N5  ZMR A 466      -4.445  58.813  -9.505  0.00  0.00    +0.000 N 
ATOM     16  C10 ZMR A 466      -5.375  59.701  -9.140  0.00  0.00    +0.000 C 
ATOM     17  O10 ZMR A 466      -6.487  59.399  -8.757  0.00  0.00    +0.000 OA
ATOM     18  C11 ZMR A 466      -4.935  61.149  -9.218  0.00  0.00    +0.000 C 
ATOM     19  H06 ZMR A 466      -3.599  59.159  -9.935  0.00  0.00    +0.000 HD
ENDBRANCH   4  15
BRANCH   1  20
ATOM     20  C1  ZMR A 466      -3.904  53.219  -9.855  0.00  0.00    +0.000 C 
ATOM     21  O1A ZMR A 466      -3.085  52.732 -10.791  0.00  0.00    +0.000 OA
BRANCH  20  22
ATOM     22  O1B ZMR A 466      -4.562  52.546  -9.126  0.00  0.00    +0.000 OA
ATOM     23  H04 ZMR A 466      -4.035  52.284  -8.368  0.00  0.00    +0.000 HD
ENDBRANCH  20  22
ENDBRANCH   1  20
BRANCH   5  24
ATOM     24  C7  ZMR A 466      -5.807  57.234 -11.653  0.00  0.00    +0.000 C 
BRANCH  24  25
ATOM     25  O7  ZMR A 466      -6.517  56.677 -11.017  0.00  0.00    +0.000 OA
ATOM     26  H07 ZMR A 466      -6.653  57.153 -10.195  0.00  0.00    +0.000 HD
ENDBRANCH  24  25
BRANCH  24  27
ATOM     27  C8  ZMR A 466      -5.577  57.018 -13.057  0.00  0.00    +0.000 C 
BRANCH  27  28
ATOM     28  O8  ZMR A 466      -4.243  57.510 -13.215  0.00  0.00    +0.000 OA
ATOM     29  H08 ZMR A 466      -4.143  57.891 -14.090  0.00  0.00    +0.000 HD
ENDBRANCH  27  28
BRANCH  27  30
ATOM     30  C9  ZMR A 466      -6.515  57.772 -13.997  0.00  0.00    +0.000 C 
BRANCH  30  31
ATOM     31  O9  ZMR A 466      -7.868  57.388 -13.754  0.00  0.00    +0.000 OA
ATOM     32  H09 ZMR A 466      -8.035  56.532 -14.156  0.00  0.00    +0.000 HD
ENDBRANCH  30  31
ENDBRANCH  27  30
ENDBRANCH  24  27
ENDBRANCH   5  24
TORSDOF 10
ENDMDL
