MODEL 4
REMARK VINA RESULT:    -7.063      2.445      4.950
REMARK INTER + INTRA:         -11.893
REMARK INTER:                 -11.574
REMARK INTRA:                  -0.319
REMARK UNBOUND:                -1.526
REMARK  Name = 1a4g_na/1A4G-ZMR.pdb
REMARK  10 active torsions:
REMARK  status: ('A' for Active; 'I' for Inactive)
REMARK    1  A    between atoms: NE_1  and  C4_10
REMARK    2  A    between atoms: C1_5  and  O1B_7
REMARK    3  A    between atoms: C1_5  and  C2_8
REMARK    4  A    between atoms: C5_11  and  N5_12
REMARK    5  A    between atoms: C6_13  and  C7_15
REMARK    6  A    between atoms: C7_15  and  O7_16
REMARK    7  A    between atoms: C7_15  and  C8_17
REMARK    8  A    between atoms: C8_17  and  O8_18
REMARK    9  A    between atoms: C8_17  and  C9_19
REMARK   10  A    between atoms: C9_19  and  O9_20
REMARK                            x       y       z     vdW  Elec       q    Type
REMARK                         _______ _______ _______ _____ _____    ______ ____
ROOT
ATOM      1  C2  ZMR A 466      -2.886  57.595  -7.491  0.00  0.00    +0.000 C 
ATOM      2  C3  ZMR A 466      -3.754  57.930  -8.460  0.00  0.00    +0.000 C 
ATOM      3  C4  ZMR A 466      -4.138  56.950  -9.527  0.00  0.00    +0.000 C 
ATOM      4  C5  ZMR A 466      -3.762  55.556  -9.176  0.00  0.00    +0.000 C 
ATOM      5  C6  ZMR A 466      -2.329  55.569  -8.565  0.00  0.00    +0.000 C 
ATOM      6  O6  ZMR A 466      -2.292  56.418  -7.422  0.00  0.00    +0.000 OA
ENDROOT
BRANCH   3   7
ATOM      7  NE  ZMR A 466      -5.539  57.003  -9.884  0.00  0.00    +0.000 N 
ATOM      8  CZ  ZMR A 466      -5.952  57.446 -11.068  0.00  0.00    +0.000 C 
ATOM      9  NH1 ZMR A 466      -5.101  57.999 -11.940  0.00  0.00    +0.000 NA
ATOM     10  NH2 ZMR A 466      -7.227  57.264 -11.400  0.00  0.00    +0.000 N 
ATOM     11  H01 ZMR A 466      -4.128  58.112 -11.693  0.00  0.00    +0.000 HD
ATOM     12  H02 ZMR A 466      -7.860  56.822 -10.749  0.00  0.00    +0.000 HD
ATOM     13  H03 ZMR A 466      -7.562  57.568 -12.303  0.00  0.00    +0.000 HD
ATOM     14  H05 ZMR A 466      -6.226  56.694  -9.212  0.00  0.00    +0.000 HD
ENDBRANCH   3   7
BRANCH   4  15
ATOM     15  N5  ZMR A 466      -3.755  54.715 -10.365  0.00  0.00    +0.000 N 
ATOM     16  C10 ZMR A 466      -3.085  55.013 -11.482  0.00  0.00    +0.000 C 
ATOM     17  O10 ZMR A 466      -2.540  56.080 -11.680  0.00  0.00    +0.000 OA
ATOM     18  C11 ZMR A 466      -3.030  53.898 -12.506  0.00  0.00    +0.000 C 
ATOM     19  H06 ZMR A 466      -4.287  53.856 -10.343  0.00  0.00    +0.000 HD
ENDBRANCH   4  15
BRANCH   1  20
ATOM     20  C1  ZMR A 466      -2.557  58.562  -6.430  0.00  0.00    +0.000 C 
ATOM     21  O1A ZMR A 466      -3.389  58.630  -5.388  0.00  0.00    +0.000 OA
BRANCH  20  22
ATOM     22  O1B ZMR A 466      -1.584  59.237  -6.555  0.00  0.00    +0.000 OA
ATOM     23  H04 ZMR A 466      -0.835  58.681  -6.779  0.00  0.00    +0.000 HD
ENDBRANCH  20  22
ENDBRANCH   1  20
BRANCH   5  24
ATOM     24  C7  ZMR A 466      -1.658  54.233  -8.284  0.00  0.00    +0.000 C 
BRANCH  24  25
ATOM     25  O7  ZMR A 466      -1.407  54.664  -7.299  0.00  0.00    +0.000 OA
ATOM     26  H07 ZMR A 466      -0.564  54.316  -7.002  0.00  0.00    +0.000 HD
ENDBRANCH  24  25
BRANCH  24  27
ATOM     27  C8  ZMR A 466      -0.717  53.783  -9.276  0.00  0.00    +0.000 C 
BRANCH  27  28
ATOM     28  O8  ZMR A 466      -0.466  52.439  -8.853  0.00  0.00    +0.000 OA
ATOM     29  H08 ZMR A 466      -0.394  52.412  -7.896  0.00  0.00    +0.000 HD
ENDBRANCH  27  28
BRANCH  27  30
ATOM     30  C9  ZMR A 466       0.599  54.558  -9.328  0.00  0.00    +0.000 C 
BRANCH  30  31
ATOM     31  O9  ZMR A 466       1.581  53.813 -10.047  0.00  0.00    +0.000 OA
ATOM     32  H09 ZMR A 466       2.377  54.342 -10.142  0.00  0.00    +0.000 HD
ENDBRANCH  30  31
ENDBRANCH  27  30
ENDBRANCH  24  27
ENDBRANCH   5  24
TORSDOF 10
ENDMDL
