MODEL 9
REMARK VINA RESULT:    -6.555      2.282      4.620
REMARK INTER + INTRA:         -11.146
REMARK INTER:                 -10.022
REMARK INTRA:                  -1.124
REMARK UNBOUND:                -1.526
REMARK  Name = 1a4g_na/1A4G-ZMR.pdb
REMARK  10 active torsions:
REMARK  status: ('A' for Active; 'I' for Inactive)
REMARK    1  A    between atoms: NE_1  and  C4_10
REMARK    2  A    between atoms: C1_5  and  O1B_7
REMARK    3  A    between atoms: C1_5  and  C2_8
REMARK    4  A    between atoms: C5_11  and  N5_12
REMARK    5  A    between atoms: C6_13  and  C7_15
REMARK    6  A    between atoms: C7_15  and  O7_16
REMARK    7  A    between atoms: C7_15  and  C8_17
REMARK    8  A    between atoms: C8_17  and  O8_18
REMARK    9  A    between atoms: C8_17  and  C9_19
REMARK   10  A    between atoms: C9_19  and  O9_20
REMARK                            x       y       z     vdW  Elec       q    Type
REMARK                         _______ _______ _______ _____ _____    ______ ____
ROOT
ATOM      1  C2  ZMR A 466      -5.118  57.926  -9.361  0.00  0.00    +0.000 C 
ATOM      2  C3  ZMR A 466      -4.251  58.241  -8.384  0.00  0.00    +0.000 C 
ATOM      3  C4  ZMR A 466      -2.886  57.624  -8.335  0.00  0.00    +0.000 C 
ATOM      4  C5  ZMR A 466      -2.512  56.974  -9.618  0.00  0.00    +0.000 C 
ATOM      5  C6  ZMR A 466      -3.742  56.176 -10.144  0.00  0.00    +0.000 C 
ATOM      6  O6  ZMR A 466      -4.856  57.049 -10.311  0.00  0.00    +0.000 OA
ENDROOT
BRANCH   3   7
ATOM      7  NE  ZMR A 466      -1.848  58.550  -7.936  0.00  0.00    +0.000 N 
ATOM      8  CZ  ZMR A 466      -1.235  58.463  -6.759  0.00  0.00    +0.000 C 
ATOM      9  NH1 ZMR A 466      -1.646  57.601  -5.822  0.00  0.00    +0.000 NA
ATOM     10  NH2 ZMR A 466      -0.153  59.210  -6.554  0.00  0.00    +0.000 N 
ATOM     11  H01 ZMR A 466      -2.452  57.018  -5.992  0.00  0.00    +0.000 HD
ATOM     12  H02 ZMR A 466       0.168  59.840  -7.274  0.00  0.00    +0.000 HD
ATOM     13  H03 ZMR A 466       0.347  59.146  -5.679  0.00  0.00    +0.000 HD
ATOM     14  H05 ZMR A 466      -1.579  59.287  -8.573  0.00  0.00    +0.000 HD
ENDBRANCH   3   7
BRANCH   4  15
ATOM     15  N5  ZMR A 466      -1.407  56.048  -9.417  0.00  0.00    +0.000 N 
ATOM     16  C10 ZMR A 466      -1.402  55.086  -8.490  0.00  0.00    +0.000 C 
ATOM     17  O10 ZMR A 466      -2.246  54.977  -7.623  0.00  0.00    +0.000 OA
ATOM     18  C11 ZMR A 466      -0.259  54.098  -8.605  0.00  0.00    +0.000 C 
ATOM     19  H06 ZMR A 466      -0.596  56.138 -10.014  0.00  0.00    +0.000 HD
ENDBRANCH   4  15
BRANCH   1  20
ATOM     20  C1  ZMR A 466      -6.439  58.577  -9.411  0.00  0.00    +0.000 C 
ATOM     21  O1A ZMR A 466      -6.527  59.816  -8.921  0.00  0.00    +0.000 OA
BRANCH  20  22
ATOM     22  O1B ZMR A 466      -7.355  57.971  -9.869  0.00  0.00    +0.000 OA
ATOM     23  H04 ZMR A 466      -7.119  57.641 -10.738  0.00  0.00    +0.000 HD
ENDBRANCH  20  22
ENDBRANCH   1  20
BRANCH   5  24
ATOM     24  C7  ZMR A 466      -3.550  55.285 -11.362  0.00  0.00    +0.000 C 
BRANCH  24  25
ATOM     25  O7  ZMR A 466      -4.277  55.952 -11.858  0.00  0.00    +0.000 OA
ATOM     26  H07 ZMR A 466      -4.835  55.438 -12.445  0.00  0.00    +0.000 HD
ENDBRANCH  24  25
BRANCH  24  27
ATOM     27  C8  ZMR A 466      -3.713  53.872 -11.137  0.00  0.00    +0.000 C 
BRANCH  27  28
ATOM     28  O8  ZMR A 466      -4.053  53.833  -9.748  0.00  0.00    +0.000 OA
ATOM     29  H08 ZMR A 466      -4.007  54.719  -9.382  0.00  0.00    +0.000 HD
ENDBRANCH  27  28
BRANCH  27  30
ATOM     30  C9  ZMR A 466      -2.468  53.023 -11.384  0.00  0.00    +0.000 C 
BRANCH  30  31
ATOM     31  O9  ZMR A 466      -1.388  53.847 -11.822  0.00  0.00    +0.000 OA
ATOM     32  H09 ZMR A 466      -1.514  54.075 -12.746  0.00  0.00    +0.000 HD
ENDBRANCH  30  31
ENDBRANCH  27  30
ENDBRANCH  24  27
ENDBRANCH   5  24
TORSDOF 10
ENDMDL
