MODEL 5
REMARK VINA RESULT:    -6.993      2.208      2.831
REMARK INTER + INTRA:         -11.804
REMARK INTER:                 -10.809
REMARK INTRA:                  -0.995
REMARK UNBOUND:                -1.540
REMARK  Name = 1A4G-ZMR.pdb
REMARK  10 active torsions:
REMARK  status: ('A' for Active; 'I' for Inactive)
REMARK    1  A    between atoms: NE_1  and  C4_10
REMARK    2  A    between atoms: C1_5  and  O1B_7
REMARK    3  A    between atoms: C1_5  and  C2_8
REMARK    4  A    between atoms: C5_11  and  N5_12
REMARK    5  A    between atoms: C6_13  and  C7_15
REMARK    6  A    between atoms: C7_15  and  O7_16
REMARK    7  A    between atoms: C7_15  and  C8_17
REMARK    8  A    between atoms: C8_17  and  O8_18
REMARK    9  A    between atoms: C8_17  and  C9_19
REMARK   10  A    between atoms: C9_19  and  O9_20
REMARK                            x       y       z     vdW  Elec       q    Type
REMARK                         _______ _______ _______ _____ _____    ______ ____
ROOT
ATOM      1  C2  ZMR A 466      -1.975  57.140  -7.880  0.00  0.00    +0.000 C 
ATOM      2  C3  ZMR A 466      -2.313  55.918  -8.325  0.00  0.00    +0.000 C 
ATOM      3  C4  ZMR A 466      -3.214  55.750  -9.510  0.00  0.00    +0.000 C 
ATOM      4  C5  ZMR A 466      -3.356  57.003 -10.297  0.00  0.00    +0.000 C 
ATOM      5  C6  ZMR A 466      -3.535  58.191  -9.305  0.00  0.00    +0.000 C 
ATOM      6  O6  ZMR A 466      -2.423  58.259  -8.417  0.00  0.00    +0.000 OA
ENDROOT
BRANCH   3   7
ATOM      7  NE  ZMR A 466      -2.822  54.666 -10.385  0.00  0.00    +0.000 N 
ATOM      8  CZ  ZMR A 466      -3.306  53.435 -10.248  0.00  0.00    +0.000 C 
ATOM      9  NH1 ZMR A 466      -4.073  53.100  -9.204  0.00  0.00    +0.000 NA
ATOM     10  NH2 ZMR A 466      -3.066  52.552 -11.213  0.00  0.00    +0.000 N 
ATOM     11  H01 ZMR A 466      -4.274  53.782  -8.486  0.00  0.00    +0.000 HD
ATOM     12  H02 ZMR A 466      -2.508  52.817 -12.012  0.00  0.00    +0.000 HD
ATOM     13  H03 ZMR A 466      -3.442  51.617 -11.147  0.00  0.00    +0.000 HD
ATOM     14  H05 ZMR A 466      -2.159  54.850 -11.124  0.00  0.00    +0.000 HD
ENDBRANCH   3   7
BRANCH   4  15
ATOM     15  N5  ZMR A 466      -4.526  56.934 -11.160  0.00  0.00    +0.000 N 
ATOM     16  C10 ZMR A 466      -4.538  57.352 -12.429  0.00  0.00    +0.000 C 
ATOM     17  O10 ZMR A 466      -3.629  57.967 -12.948  0.00  0.00    +0.000 OA
ATOM     18  C11 ZMR A 466      -5.784  56.981 -13.207  0.00  0.00    +0.000 C 
ATOM     19  H06 ZMR A 466      -5.377  56.549 -10.777  0.00  0.00    +0.000 HD
ENDBRANCH   4  15
BRANCH   1  20
ATOM     20  C1  ZMR A 466      -1.054  57.280  -6.738  0.00  0.00    +0.000 C 
ATOM     21  O1A ZMR A 466      -0.836  56.192  -5.995  0.00  0.00    +0.000 OA
BRANCH  20  22
ATOM     22  O1B ZMR A 466      -0.565  58.344  -6.528  0.00  0.00    +0.000 OA
ATOM     23  H04 ZMR A 466      -0.977  58.739  -5.757  0.00  0.00    +0.000 HD
ENDBRANCH  20  22
ENDBRANCH   1  20
BRANCH   5  24
ATOM     24  C7  ZMR A 466      -3.869  59.559  -9.879  0.00  0.00    +0.000 C 
BRANCH  24  25
ATOM     25  O7  ZMR A 466      -2.827  59.823  -9.629  0.00  0.00    +0.000 OA
ATOM     26  H07 ZMR A 466      -2.250  59.086  -9.840  0.00  0.00    +0.000 HD
ENDBRANCH  24  25
BRANCH  24  27
ATOM     27  C8  ZMR A 466      -5.052  60.188  -9.353  0.00  0.00    +0.000 C 
BRANCH  27  28
ATOM     28  O8  ZMR A 466      -4.851  60.061  -7.943  0.00  0.00    +0.000 OA
ATOM     29  H08 ZMR A 466      -5.392  59.344  -7.605  0.00  0.00    +0.000 HD
ENDBRANCH  27  28
BRANCH  27  30
ATOM     30  C9  ZMR A 466      -6.373  59.528  -9.745  0.00  0.00    +0.000 C 
BRANCH  30  31
ATOM     31  O9  ZMR A 466      -6.882  58.761  -8.654  0.00  0.00    +0.000 OA
ATOM     32  H09 ZMR A 466      -7.353  57.996  -8.993  0.00  0.00    +0.000 HD
ENDBRANCH  30  31
ENDBRANCH  27  30
ENDBRANCH  24  27
ENDBRANCH   5  24
TORSDOF 10
ENDMDL
