MODEL 9
REMARK VINA RESULT:    -6.333      2.196      4.842
REMARK INTER + INTRA:         -10.835
REMARK INTER:                  -9.885
REMARK INTRA:                  -0.950
REMARK UNBOUND:                -1.540
REMARK  Name = 1A4G-ZMR.pdb
REMARK  10 active torsions:
REMARK  status: ('A' for Active; 'I' for Inactive)
REMARK    1  A    between atoms: NE_1  and  C4_10
REMARK    2  A    between atoms: C1_5  and  O1B_7
REMARK    3  A    between atoms: C1_5  and  C2_8
REMARK    4  A    between atoms: C5_11  and  N5_12
REMARK    5  A    between atoms: C6_13  and  C7_15
REMARK    6  A    between atoms: C7_15  and  O7_16
REMARK    7  A    between atoms: C7_15  and  C8_17
REMARK    8  A    between atoms: C8_17  and  O8_18
REMARK    9  A    between atoms: C8_17  and  C9_19
REMARK   10  A    between atoms: C9_19  and  O9_20
REMARK                            x       y       z     vdW  Elec       q    Type
REMARK                         _______ _______ _______ _____ _____    ______ ____
ROOT
ATOM      1  C2  ZMR A 466      -4.627  57.577 -11.972  0.00  0.00    +0.000 C 
ATOM      2  C3  ZMR A 466      -3.866  56.527 -12.322  0.00  0.00    +0.000 C 
ATOM      3  C4  ZMR A 466      -3.180  55.691 -11.284  0.00  0.00    +0.000 C 
ATOM      4  C5  ZMR A 466      -3.724  55.922  -9.921  0.00  0.00    +0.000 C 
ATOM      5  C6  ZMR A 466      -3.926  57.454  -9.723  0.00  0.00    +0.000 C 
ATOM      6  O6  ZMR A 466      -4.801  57.965 -10.724  0.00  0.00    +0.000 OA
ENDROOT
BRANCH   3   7
ATOM      7  NE  ZMR A 466      -3.194  54.275 -11.582  0.00  0.00    +0.000 N 
ATOM      8  CZ  ZMR A 466      -2.084  53.542 -11.590  0.00  0.00    +0.000 C 
ATOM      9  NH1 ZMR A 466      -0.877  54.105 -11.462  0.00  0.00    +0.000 NA
ATOM     10  NH2 ZMR A 466      -2.203  52.219 -11.660  0.00  0.00    +0.000 N 
ATOM     11  H01 ZMR A 466      -0.794  55.108 -11.384  0.00  0.00    +0.000 HD
ATOM     12  H02 ZMR A 466      -3.118  51.797 -11.730  0.00  0.00    +0.000 HD
ATOM     13  H03 ZMR A 466      -1.378  51.636 -11.642  0.00  0.00    +0.000 HD
ATOM     14  H05 ZMR A 466      -4.075  53.828 -11.792  0.00  0.00    +0.000 HD
ENDBRANCH   3   7
BRANCH   4  15
ATOM     15  N5  ZMR A 466      -2.793  55.439  -8.911  0.00  0.00    +0.000 N 
ATOM     16  C10 ZMR A 466      -2.775  54.182  -8.459  0.00  0.00    +0.000 C 
ATOM     17  O10 ZMR A 466      -3.621  53.353  -8.725  0.00  0.00    +0.000 OA
ATOM     18  C11 ZMR A 466      -1.586  53.840  -7.584  0.00  0.00    +0.000 C 
ATOM     19  H06 ZMR A 466      -2.123  56.092  -8.532  0.00  0.00    +0.000 HD
ENDBRANCH   4  15
BRANCH   1  20
ATOM     20  C1  ZMR A 466      -5.323  58.359 -13.008  0.00  0.00    +0.000 C 
ATOM     21  O1A ZMR A 466      -6.327  57.759 -13.653  0.00  0.00    +0.000 OA
BRANCH  20  22
ATOM     22  O1B ZMR A 466      -4.956  59.470 -13.228  0.00  0.00    +0.000 OA
ATOM     23  H04 ZMR A 466      -5.695  60.075 -13.139  0.00  0.00    +0.000 HD
ENDBRANCH  20  22
ENDBRANCH   1  20
BRANCH   5  24
ATOM     24  C7  ZMR A 466      -4.316  57.952  -8.339  0.00  0.00    +0.000 C 
BRANCH  24  25
ATOM     25  O7  ZMR A 466      -5.336  58.041  -8.753  0.00  0.00    +0.000 OA
ATOM     26  H07 ZMR A 466      -5.855  58.628  -8.199  0.00  0.00    +0.000 HD
ENDBRANCH  24  25
BRANCH  24  27
ATOM     27  C8  ZMR A 466      -3.518  59.027  -7.812  0.00  0.00    +0.000 C 
BRANCH  27  28
ATOM     28  O8  ZMR A 466      -2.693  59.358  -8.932  0.00  0.00    +0.000 OA
ATOM     29  H08 ZMR A 466      -1.775  59.177  -8.719  0.00  0.00    +0.000 HD
ENDBRANCH  27  28
BRANCH  27  30
ATOM     30  C9  ZMR A 466      -2.639  58.664  -6.617  0.00  0.00    +0.000 C 
BRANCH  30  31
ATOM     31  O9  ZMR A 466      -3.426  58.599  -5.428  0.00  0.00    +0.000 OA
ATOM     32  H09 ZMR A 466      -2.932  58.976  -4.696  0.00  0.00    +0.000 HD
ENDBRANCH  30  31
ENDBRANCH  27  30
ENDBRANCH  24  27
ENDBRANCH   5  24
TORSDOF 10
ENDMDL
