MODEL 8
REMARK VINA RESULT:    -4.379     10.291     11.734
REMARK INTER + INTRA:          -7.965
REMARK INTER:                  -6.391
REMARK INTRA:                  -1.575
REMARK UNBOUND:                -1.539
REMARK  Name = 1A4G-ZMR.pdb
REMARK  10 active torsions:
REMARK  status: ('A' for Active; 'I' for Inactive)
REMARK    1  A    between atoms: NE_1  and  C4_10
REMARK    2  A    between atoms: C1_5  and  O1B_7
REMARK    3  A    between atoms: C1_5  and  C2_8
REMARK    4  A    between atoms: C5_11  and  N5_12
REMARK    5  A    between atoms: C6_13  and  C7_15
REMARK    6  A    between atoms: C7_15  and  O7_16
REMARK    7  A    between atoms: C7_15  and  C8_17
REMARK    8  A    between atoms: C8_17  and  O8_18
REMARK    9  A    between atoms: C8_17  and  C9_19
REMARK   10  A    between atoms: C9_19  and  O9_20
REMARK                            x       y       z     vdW  Elec       q    Type
REMARK                         _______ _______ _______ _____ _____    ______ ____
ROOT
ATOM      1  C2  ZMR A 466      10.859  49.174  14.376  0.00  0.00    +0.000 C 
ATOM      2  C3  ZMR A 466      10.238  48.607  15.423  0.00  0.00    +0.000 C 
ATOM      3  C4  ZMR A 466       9.532  49.442  16.448  0.00  0.00    +0.000 C 
ATOM      4  C5  ZMR A 466       9.297  50.833  15.980  0.00  0.00    +0.000 C 
ATOM      5  C6  ZMR A 466      10.588  51.341  15.271  0.00  0.00    +0.000 C 
ATOM      6  O6  ZMR A 466      10.922  50.479  14.187  0.00  0.00    +0.000 OA
ENDROOT
BRANCH   3   7
ATOM      7  NE  ZMR A 466       8.287  48.864  16.906  0.00  0.00    +0.000 N 
ATOM      8  CZ  ZMR A 466       8.134  48.403  18.144  0.00  0.00    +0.000 C 
ATOM      9  NH1 ZMR A 466       9.167  48.320  18.989  0.00  0.00    +0.000 NA
ATOM     10  NH2 ZMR A 466       6.907  48.088  18.552  0.00  0.00    +0.000 N 
ATOM     11  H01 ZMR A 466      10.092  48.585  18.683  0.00  0.00    +0.000 HD
ATOM     12  H02 ZMR A 466       6.126  48.177  17.919  0.00  0.00    +0.000 HD
ATOM     13  H03 ZMR A 466       6.758  47.759  19.495  0.00  0.00    +0.000 HD
ATOM     14  H05 ZMR A 466       7.509  48.808  16.265  0.00  0.00    +0.000 HD
ENDBRANCH   3   7
BRANCH   4  15
ATOM     15  N5  ZMR A 466       9.008  51.708  17.107  0.00  0.00    +0.000 N 
ATOM     16  C10 ZMR A 466       7.960  52.535  17.156  0.00  0.00    +0.000 C 
ATOM     17  O10 ZMR A 466       7.227  52.755  16.213  0.00  0.00    +0.000 OA
ATOM     18  C11 ZMR A 466       7.723  53.182  18.505  0.00  0.00    +0.000 C 
ATOM     19  H06 ZMR A 466       9.637  51.689  17.897  0.00  0.00    +0.000 HD
ENDBRANCH   4  15
BRANCH   1  20
ATOM     20  C1  ZMR A 466      11.511  48.330  13.360  0.00  0.00    +0.000 C 
ATOM     21  O1A ZMR A 466      11.567  47.018  13.602  0.00  0.00    +0.000 OA
BRANCH  20  22
ATOM     22  O1B ZMR A 466      11.962  48.851  12.389  0.00  0.00    +0.000 OA
ATOM     23  H04 ZMR A 466      11.495  49.671  12.220  0.00  0.00    +0.000 HD
ENDBRANCH  20  22
ENDBRANCH   1  20
BRANCH   5  24
ATOM     24  C7  ZMR A 466      10.650  52.802  14.856  0.00  0.00    +0.000 C 
BRANCH  24  25
ATOM     25  O7  ZMR A 466       9.800  52.561  14.194  0.00  0.00    +0.000 OA
ATOM     26  H07 ZMR A 466       8.999  52.957  14.543  0.00  0.00    +0.000 HD
ENDBRANCH  24  25
BRANCH  24  27
ATOM     27  C8  ZMR A 466      11.940  53.282  14.436  0.00  0.00    +0.000 C 
BRANCH  27  28
ATOM     28  O8  ZMR A 466      11.990  52.840  13.077  0.00  0.00    +0.000 OA
ATOM     29  H08 ZMR A 466      12.427  51.986  13.033  0.00  0.00    +0.000 HD
ENDBRANCH  27  28
BRANCH  27  30
ATOM     30  C9  ZMR A 466      13.131  52.712  15.205  0.00  0.00    +0.000 C 
BRANCH  30  31
ATOM     31  O9  ZMR A 466      13.732  51.650  14.465  0.00  0.00    +0.000 OA
ATOM     32  H09 ZMR A 466      14.042  50.973  15.071  0.00  0.00    +0.000 HD
ENDBRANCH  30  31
ENDBRANCH  27  30
ENDBRANCH  24  27
ENDBRANCH   5  24
TORSDOF 10
ENDMDL
