MODEL 6
REMARK VINA RESULT:    -6.857      1.383      1.430
REMARK INTER + INTRA:         -11.604
REMARK INTER:                 -10.090
REMARK INTRA:                  -1.515
REMARK UNBOUND:                -1.540
REMARK  Name = 1A4G-ZMR.pdb
REMARK  10 active torsions:
REMARK  status: ('A' for Active; 'I' for Inactive)
REMARK    1  A    between atoms: NE_1  and  C4_10
REMARK    2  A    between atoms: C1_5  and  O1B_7
REMARK    3  A    between atoms: C1_5  and  C2_8
REMARK    4  A    between atoms: C5_11  and  N5_12
REMARK    5  A    between atoms: C6_13  and  C7_15
REMARK    6  A    between atoms: C7_15  and  O7_16
REMARK    7  A    between atoms: C7_15  and  C8_17
REMARK    8  A    between atoms: C8_17  and  O8_18
REMARK    9  A    between atoms: C8_17  and  C9_19
REMARK   10  A    between atoms: C9_19  and  O9_20
REMARK                            x       y       z     vdW  Elec       q    Type
REMARK                         _______ _______ _______ _____ _____    ______ ____
ROOT
ATOM      1  C2  ZMR A 466      -1.910  58.479  -7.011  0.00  0.00    +0.000 C 
ATOM      2  C3  ZMR A 466      -1.500  57.200  -6.971  0.00  0.00    +0.000 C 
ATOM      3  C4  ZMR A 466      -1.894  56.229  -8.042  0.00  0.00    +0.000 C 
ATOM      4  C5  ZMR A 466      -2.427  56.907  -9.253  0.00  0.00    +0.000 C 
ATOM      5  C6  ZMR A 466      -3.388  58.046  -8.798  0.00  0.00    +0.000 C 
ATOM      6  O6  ZMR A 466      -2.697  58.961  -7.953  0.00  0.00    +0.000 OA
ENDROOT
BRANCH   3   7
ATOM      7  NE  ZMR A 466      -0.832  55.322  -8.419  0.00  0.00    +0.000 N 
ATOM      8  CZ  ZMR A 466      -1.026  54.011  -8.530  0.00  0.00    +0.000 C 
ATOM      9  NH1 ZMR A 466      -2.180  53.444  -8.160  0.00  0.00    +0.000 NA
ATOM     10  NH2 ZMR A 466      -0.065  53.276  -9.084  0.00  0.00    +0.000 N 
ATOM     11  H01 ZMR A 466      -2.915  54.010  -7.763  0.00  0.00    +0.000 HD
ATOM     12  H02 ZMR A 466       0.794  53.712  -9.385  0.00  0.00    +0.000 HD
ATOM     13  H03 ZMR A 466      -0.196  52.282  -9.203  0.00  0.00    +0.000 HD
ATOM     14  H05 ZMR A 466       0.088  55.697  -8.603  0.00  0.00    +0.000 HD
ENDBRANCH   3   7
BRANCH   4  15
ATOM     15  N5  ZMR A 466      -3.173  55.968 -10.077  0.00  0.00    +0.000 N 
ATOM     16  C10 ZMR A 466      -2.752  55.525 -11.265  0.00  0.00    +0.000 C 
ATOM     17  O10 ZMR A 466      -1.785  55.970 -11.850  0.00  0.00    +0.000 OA
ATOM     18  C11 ZMR A 466      -3.568  54.387 -11.844  0.00  0.00    +0.000 C 
ATOM     19  H06 ZMR A 466      -4.060  55.631  -9.730  0.00  0.00    +0.000 HD
ENDBRANCH   4  15
BRANCH   1  20
ATOM     20  C1  ZMR A 466      -1.475  59.424  -5.967  0.00  0.00    +0.000 C 
ATOM     21  O1A ZMR A 466      -0.161  59.613  -5.825  0.00  0.00    +0.000 OA
BRANCH  20  22
ATOM     22  O1B ZMR A 466      -2.304  59.959  -5.302  0.00  0.00    +0.000 OA
ATOM     23  H04 ZMR A 466      -2.780  60.599  -5.836  0.00  0.00    +0.000 HD
ENDBRANCH  20  22
ENDBRANCH   1  20
BRANCH   5  24
ATOM     24  C7  ZMR A 466      -4.190  58.775  -9.865  0.00  0.00    +0.000 C 
BRANCH  24  25
ATOM     25  O7  ZMR A 466      -3.373  59.517  -9.850  0.00  0.00    +0.000 OA
ATOM     26  H07 ZMR A 466      -3.731  60.383  -9.644  0.00  0.00    +0.000 HD
ENDBRANCH  24  25
BRANCH  24  27
ATOM     27  C8  ZMR A 466      -5.571  59.029  -9.548  0.00  0.00    +0.000 C 
BRANCH  27  28
ATOM     28  O8  ZMR A 466      -5.458  59.873  -8.399  0.00  0.00    +0.000 OA
ATOM     29  H08 ZMR A 466      -6.236  59.769  -7.847  0.00  0.00    +0.000 HD
ENDBRANCH  27  28
BRANCH  27  30
ATOM     30  C9  ZMR A 466      -6.399  57.794  -9.198  0.00  0.00    +0.000 C 
BRANCH  30  31
ATOM     31  O9  ZMR A 466      -6.232  56.789 -10.197  0.00  0.00    +0.000 OA
ATOM     32  H09 ZMR A 466      -6.866  56.932 -10.904  0.00  0.00    +0.000 HD
ENDBRANCH  30  31
ENDBRANCH  27  30
ENDBRANCH  24  27
ENDBRANCH   5  24
TORSDOF 10
ENDMDL
