MODEL 5
REMARK VINA RESULT:    -6.811      2.108      2.689
REMARK INTER + INTRA:         -11.523
REMARK INTER:                 -10.549
REMARK INTRA:                  -0.974
REMARK UNBOUND:                -1.526
REMARK  Name = 1a4g_na/1A4G-ZMR.pdb
REMARK  10 active torsions:
REMARK  status: ('A' for Active; 'I' for Inactive)
REMARK    1  A    between atoms: NE_1  and  C4_10
REMARK    2  A    between atoms: C1_5  and  O1B_7
REMARK    3  A    between atoms: C1_5  and  C2_8
REMARK    4  A    between atoms: C5_11  and  N5_12
REMARK    5  A    between atoms: C6_13  and  C7_15
REMARK    6  A    between atoms: C7_15  and  O7_16
REMARK    7  A    between atoms: C7_15  and  C8_17
REMARK    8  A    between atoms: C8_17  and  O8_18
REMARK    9  A    between atoms: C8_17  and  C9_19
REMARK   10  A    between atoms: C9_19  and  O9_20
REMARK                            x       y       z     vdW  Elec       q    Type
REMARK                         _______ _______ _______ _____ _____    ______ ____
ROOT
ATOM      1  C2  ZMR A 466      -2.065  57.110  -7.903  0.00  0.00    +0.000 C 
ATOM      2  C3  ZMR A 466      -2.222  55.905  -8.476  0.00  0.00    +0.000 C 
ATOM      3  C4  ZMR A 466      -3.095  55.731  -9.682  0.00  0.00    +0.000 C 
ATOM      4  C5  ZMR A 466      -3.422  57.025 -10.335  0.00  0.00    +0.000 C 
ATOM      5  C6  ZMR A 466      -3.769  58.064  -9.228  0.00  0.00    +0.000 C 
ATOM      6  O6  ZMR A 466      -2.675  58.201  -8.326  0.00  0.00    +0.000 OA
ENDROOT
BRANCH   3   7
ATOM      7  NE  ZMR A 466      -2.552  54.814 -10.660  0.00  0.00    +0.000 N 
ATOM      8  CZ  ZMR A 466      -2.958  53.550 -10.748  0.00  0.00    +0.000 C 
ATOM      9  NH1 ZMR A 466      -3.787  53.021  -9.841  0.00  0.00    +0.000 NA
ATOM     10  NH2 ZMR A 466      -2.572  52.836 -11.802  0.00  0.00    +0.000 N 
ATOM     11  H01 ZMR A 466      -4.098  53.575  -9.057  0.00  0.00    +0.000 HD
ATOM     12  H02 ZMR A 466      -1.967  53.248 -12.496  0.00  0.00    +0.000 HD
ATOM     13  H03 ZMR A 466      -2.886  51.881 -11.907  0.00  0.00    +0.000 HD
ATOM     14  H05 ZMR A 466      -1.842  55.143 -11.298  0.00  0.00    +0.000 HD
ENDBRANCH   3   7
BRANCH   4  15
ATOM     15  N5  ZMR A 466      -4.574  56.877 -11.213  0.00  0.00    +0.000 N 
ATOM     16  C10 ZMR A 466      -4.643  57.396 -12.442  0.00  0.00    +0.000 C 
ATOM     17  O10 ZMR A 466      -3.824  58.168 -12.898  0.00  0.00    +0.000 OA
ATOM     18  C11 ZMR A 466      -5.829  56.931 -13.263  0.00  0.00    +0.000 C 
ATOM     19  H06 ZMR A 466      -5.366  56.350 -10.873  0.00  0.00    +0.000 HD
ENDBRANCH   4  15
BRANCH   1  20
ATOM     20  C1  ZMR A 466      -1.170  57.263  -6.743  0.00  0.00    +0.000 C 
ATOM     21  O1A ZMR A 466      -0.881  56.161  -6.047  0.00  0.00    +0.000 OA
BRANCH  20  22
ATOM     22  O1B ZMR A 466      -0.761  58.349  -6.478  0.00  0.00    +0.000 OA
ATOM     23  H04 ZMR A 466      -1.501  58.946  -6.345  0.00  0.00    +0.000 HD
ENDBRANCH  20  22
ENDBRANCH   1  20
BRANCH   5  24
ATOM     24  C7  ZMR A 466      -4.303  59.421  -9.660  0.00  0.00    +0.000 C 
BRANCH  24  25
ATOM     25  O7  ZMR A 466      -3.477  59.841  -9.061  0.00  0.00    +0.000 OA
ATOM     26  H07 ZMR A 466      -2.759  60.099  -9.642  0.00  0.00    +0.000 HD
ENDBRANCH  24  25
BRANCH  24  27
ATOM     27  C8  ZMR A 466      -5.708  59.642  -9.438  0.00  0.00    +0.000 C 
BRANCH  27  28
ATOM     28  O8  ZMR A 466      -5.691  60.589  -8.366  0.00  0.00    +0.000 OA
ATOM     29  H08 ZMR A 466      -5.037  60.325  -7.716  0.00  0.00    +0.000 HD
ENDBRANCH  27  28
BRANCH  27  30
ATOM     30  C9  ZMR A 466      -6.506  58.408  -9.020  0.00  0.00    +0.000 C 
BRANCH  30  31
ATOM     31  O9  ZMR A 466      -7.238  57.895 -10.132  0.00  0.00    +0.000 OA
ATOM     32  H09 ZMR A 466      -7.652  57.064  -9.886  0.00  0.00    +0.000 HD
ENDBRANCH  30  31
ENDBRANCH  27  30
ENDBRANCH  24  27
ENDBRANCH   5  24
TORSDOF 10
ENDMDL
