MODEL 8
REMARK VINA RESULT:    -6.672      3.094      4.993
REMARK INTER + INTRA:         -11.319
REMARK INTER:                  -9.571
REMARK INTRA:                  -1.747
REMARK UNBOUND:                -1.526
REMARK  Name = 1a4g_na/1A4G-ZMR.pdb
REMARK  10 active torsions:
REMARK  status: ('A' for Active; 'I' for Inactive)
REMARK    1  A    between atoms: NE_1  and  C4_10
REMARK    2  A    between atoms: C1_5  and  O1B_7
REMARK    3  A    between atoms: C1_5  and  C2_8
REMARK    4  A    between atoms: C5_11  and  N5_12
REMARK    5  A    between atoms: C6_13  and  C7_15
REMARK    6  A    between atoms: C7_15  and  O7_16
REMARK    7  A    between atoms: C7_15  and  C8_17
REMARK    8  A    between atoms: C8_17  and  O8_18
REMARK    9  A    between atoms: C8_17  and  C9_19
REMARK   10  A    between atoms: C9_19  and  O9_20
REMARK                            x       y       z     vdW  Elec       q    Type
REMARK                         _______ _______ _______ _____ _____    ______ ____
ROOT
ATOM      1  C2  ZMR A 466      -2.203  57.365  -7.470  0.00  0.00    +0.000 C 
ATOM      2  C3  ZMR A 466      -2.547  58.552  -7.995  0.00  0.00    +0.000 C 
ATOM      3  C4  ZMR A 466      -3.328  58.635  -9.271  0.00  0.00    +0.000 C 
ATOM      4  C5  ZMR A 466      -3.953  57.338  -9.638  0.00  0.00    +0.000 C 
ATOM      5  C6  ZMR A 466      -2.912  56.203  -9.397  0.00  0.00    +0.000 C 
ATOM      6  O6  ZMR A 466      -2.489  56.209  -8.037  0.00  0.00    +0.000 OA
ENDROOT
BRANCH   3   7
ATOM      7  NE  ZMR A 466      -4.333  59.677  -9.267  0.00  0.00    +0.000 N 
ATOM      8  CZ  ZMR A 466      -4.467  60.535 -10.274  0.00  0.00    +0.000 C 
ATOM      9  NH1 ZMR A 466      -3.586  60.571 -11.280  0.00  0.00    +0.000 NA
ATOM     10  NH2 ZMR A 466      -5.541  61.320 -10.295  0.00  0.00    +0.000 N 
ATOM     11  H01 ZMR A 466      -2.785  59.956 -11.272  0.00  0.00    +0.000 HD
ATOM     12  H02 ZMR A 466      -6.216  61.270  -9.546  0.00  0.00    +0.000 HD
ATOM     13  H03 ZMR A 466      -5.681  61.964 -11.060  0.00  0.00    +0.000 HD
ATOM     14  H05 ZMR A 466      -4.953  59.754  -8.474  0.00  0.00    +0.000 HD
ENDBRANCH   3   7
BRANCH   4  15
ATOM     15  N5  ZMR A 466      -4.331  57.333 -11.043  0.00  0.00    +0.000 N 
ATOM     16  C10 ZMR A 466      -5.549  57.001 -11.484  0.00  0.00    +0.000 C 
ATOM     17  O10 ZMR A 466      -6.417  56.525 -10.780  0.00  0.00    +0.000 OA
ATOM     18  C11 ZMR A 466      -5.792  57.282 -12.953  0.00  0.00    +0.000 C 
ATOM     19  H06 ZMR A 466      -3.634  57.596 -11.725  0.00  0.00    +0.000 HD
ENDBRANCH   4  15
BRANCH   1  20
ATOM     20  C1  ZMR A 466      -1.470  57.309  -6.192  0.00  0.00    +0.000 C 
ATOM     21  O1A ZMR A 466      -1.733  58.264  -5.297  0.00  0.00    +0.000 OA
BRANCH  20  22
ATOM     22  O1B ZMR A 466      -0.681  56.434  -6.026  0.00  0.00    +0.000 OA
ATOM     23  H04 ZMR A 466       0.135  56.647  -6.485  0.00  0.00    +0.000 HD
ENDBRANCH  20  22
ENDBRANCH   1  20
BRANCH   5  24
ATOM     24  C7  ZMR A 466      -3.264  54.798  -9.862  0.00  0.00    +0.000 C 
BRANCH  24  25
ATOM     25  O7  ZMR A 466      -4.178  54.919  -9.255  0.00  0.00    +0.000 OA
ATOM     26  H07 ZMR A 466      -3.940  54.987  -8.328  0.00  0.00    +0.000 HD
ENDBRANCH  24  25
BRANCH  24  27
ATOM     27  C8  ZMR A 466      -2.245  53.800  -9.670  0.00  0.00    +0.000 C 
BRANCH  27  28
ATOM     28  O8  ZMR A 466      -2.449  53.431  -8.303  0.00  0.00    +0.000 OA
ATOM     29  H08 ZMR A 466      -3.022  54.074  -7.880  0.00  0.00    +0.000 HD
ENDBRANCH  27  28
BRANCH  27  30
ATOM     30  C9  ZMR A 466      -0.809  54.287  -9.861  0.00  0.00    +0.000 C 
BRANCH  30  31
ATOM     31  O9  ZMR A 466      -0.194  54.517  -8.594  0.00  0.00    +0.000 OA
ATOM     32  H09 ZMR A 466       0.718  54.785  -8.726  0.00  0.00    +0.000 HD
ENDBRANCH  30  31
ENDBRANCH  27  30
ENDBRANCH  24  27
ENDBRANCH   5  24
TORSDOF 10
ENDMDL
