MODEL 3
REMARK VINA RESULT:    -7.287      3.316      5.278
REMARK INTER + INTRA:         -12.235
REMARK INTER:                 -10.967
REMARK INTRA:                  -1.268
REMARK UNBOUND:                -1.540
REMARK  Name = 1A4G-ZMR.pdb
REMARK  10 active torsions:
REMARK  status: ('A' for Active; 'I' for Inactive)
REMARK    1  A    between atoms: NE_1  and  C4_10
REMARK    2  A    between atoms: C1_5  and  O1B_7
REMARK    3  A    between atoms: C1_5  and  C2_8
REMARK    4  A    between atoms: C5_11  and  N5_12
REMARK    5  A    between atoms: C6_13  and  C7_15
REMARK    6  A    between atoms: C7_15  and  O7_16
REMARK    7  A    between atoms: C7_15  and  C8_17
REMARK    8  A    between atoms: C8_17  and  O8_18
REMARK    9  A    between atoms: C8_17  and  C9_19
REMARK   10  A    between atoms: C9_19  and  O9_20
REMARK                            x       y       z     vdW  Elec       q    Type
REMARK                         _______ _______ _______ _____ _____    ______ ____
ROOT
ATOM      1  C2  ZMR A 466      -3.989  54.690  -9.741  0.00  0.00    +0.000 C 
ATOM      2  C3  ZMR A 466      -3.239  55.337  -8.834  0.00  0.00    +0.000 C 
ATOM      3  C4  ZMR A 466      -3.347  56.821  -8.659  0.00  0.00    +0.000 C 
ATOM      4  C5  ZMR A 466      -4.570  57.378  -9.295  0.00  0.00    +0.000 C 
ATOM      5  C6  ZMR A 466      -4.748  56.711 -10.692  0.00  0.00    +0.000 C 
ATOM      6  O6  ZMR A 466      -4.835  55.296 -10.551  0.00  0.00    +0.000 OA
ENDROOT
BRANCH   3   7
ATOM      7  NE  ZMR A 466      -3.278  57.247  -7.278  0.00  0.00    +0.000 N 
ATOM      8  CZ  ZMR A 466      -2.513  58.263  -6.888  0.00  0.00    +0.000 C 
ATOM      9  NH1 ZMR A 466      -1.658  58.854  -7.729  0.00  0.00    +0.000 NA
ATOM     10  NH2 ZMR A 466      -2.666  58.728  -5.651  0.00  0.00    +0.000 N 
ATOM     11  H01 ZMR A 466      -1.564  58.514  -8.675  0.00  0.00    +0.000 HD
ATOM     12  H02 ZMR A 466      -3.331  58.295  -5.027  0.00  0.00    +0.000 HD
ATOM     13  H03 ZMR A 466      -2.116  59.514  -5.336  0.00  0.00    +0.000 HD
ATOM     14  H05 ZMR A 466      -3.828  56.757  -6.587  0.00  0.00    +0.000 HD
ENDBRANCH   3   7
BRANCH   4  15
ATOM     15  N5  ZMR A 466      -4.440  58.816  -9.477  0.00  0.00    +0.000 N 
ATOM     16  C10 ZMR A 466      -5.376  59.698  -9.115  0.00  0.00    +0.000 C 
ATOM     17  O10 ZMR A 466      -6.489  59.389  -8.738  0.00  0.00    +0.000 OA
ATOM     18  C11 ZMR A 466      -4.944  61.149  -9.185  0.00  0.00    +0.000 C 
ATOM     19  H06 ZMR A 466      -3.594  59.168  -9.901  0.00  0.00    +0.000 HD
ENDBRANCH   4  15
BRANCH   1  20
ATOM     20  C1  ZMR A 466      -3.894  53.225  -9.865  0.00  0.00    +0.000 C 
ATOM     21  O1A ZMR A 466      -3.075  52.745 -10.804  0.00  0.00    +0.000 OA
BRANCH  20  22
ATOM     22  O1B ZMR A 466      -4.552  52.547  -9.141  0.00  0.00    +0.000 OA
ATOM     23  H04 ZMR A 466      -5.342  52.257  -9.603  0.00  0.00    +0.000 HD
ENDBRANCH  20  22
ENDBRANCH   1  20
BRANCH   5  24
ATOM     24  C7  ZMR A 466      -5.839  57.246 -11.606  0.00  0.00    +0.000 C 
BRANCH  24  25
ATOM     25  O7  ZMR A 466      -6.534  56.665 -10.974  0.00  0.00    +0.000 OA
ATOM     26  H07 ZMR A 466      -6.838  57.212 -10.247  0.00  0.00    +0.000 HD
ENDBRANCH  24  25
BRANCH  24  27
ATOM     27  C8  ZMR A 466      -5.622  57.061 -13.017  0.00  0.00    +0.000 C 
BRANCH  27  28
ATOM     28  O8  ZMR A 466      -4.203  57.207 -13.117  0.00  0.00    +0.000 OA
ATOM     29  H08 ZMR A 466      -3.777  56.678 -12.439  0.00  0.00    +0.000 HD
ENDBRANCH  27  28
BRANCH  27  30
ATOM     30  C9  ZMR A 466      -6.308  58.081 -13.923  0.00  0.00    +0.000 C 
BRANCH  30  31
ATOM     31  O9  ZMR A 466      -7.590  57.600 -14.325  0.00  0.00    +0.000 OA
ATOM     32  H09 ZMR A 466      -8.275  58.115 -13.892  0.00  0.00    +0.000 HD
ENDBRANCH  30  31
ENDBRANCH  27  30
ENDBRANCH  24  27
ENDBRANCH   5  24
TORSDOF 10
ENDMDL
