MODEL 6
REMARK VINA RESULT:    -6.784      3.263      5.612
REMARK INTER + INTRA:         -11.484
REMARK INTER:                  -9.978
REMARK INTRA:                  -1.506
REMARK UNBOUND:                -1.526
REMARK  Name = 1a4g_na/1A4G-ZMR.pdb
REMARK  10 active torsions:
REMARK  status: ('A' for Active; 'I' for Inactive)
REMARK    1  A    between atoms: NE_1  and  C4_10
REMARK    2  A    between atoms: C1_5  and  O1B_7
REMARK    3  A    between atoms: C1_5  and  C2_8
REMARK    4  A    between atoms: C5_11  and  N5_12
REMARK    5  A    between atoms: C6_13  and  C7_15
REMARK    6  A    between atoms: C7_15  and  O7_16
REMARK    7  A    between atoms: C7_15  and  C8_17
REMARK    8  A    between atoms: C8_17  and  O8_18
REMARK    9  A    between atoms: C8_17  and  C9_19
REMARK   10  A    between atoms: C9_19  and  O9_20
REMARK                            x       y       z     vdW  Elec       q    Type
REMARK                         _______ _______ _______ _____ _____    ______ ____
ROOT
ATOM      1  C2  ZMR A 466      -3.010  55.442  -8.857  0.00  0.00    +0.000 C 
ATOM      2  C3  ZMR A 466      -3.983  55.461  -9.783  0.00  0.00    +0.000 C 
ATOM      3  C4  ZMR A 466      -4.664  56.741 -10.162  0.00  0.00    +0.000 C 
ATOM      4  C5  ZMR A 466      -3.914  57.939  -9.702  0.00  0.00    +0.000 C 
ATOM      5  C6  ZMR A 466      -3.422  57.684  -8.246  0.00  0.00    +0.000 C 
ATOM      6  O6  ZMR A 466      -2.608  56.515  -8.203  0.00  0.00    +0.000 OA
ENDROOT
BRANCH   3   7
ATOM      7  NE  ZMR A 466      -4.939  56.851 -11.578  0.00  0.00    +0.000 N 
ATOM      8  CZ  ZMR A 466      -6.150  57.144 -12.044  0.00  0.00    +0.000 C 
ATOM      9  NH1 ZMR A 466      -7.210  57.210 -11.232  0.00  0.00    +0.000 NA
ATOM     10  NH2 ZMR A 466      -6.274  57.438 -13.336  0.00  0.00    +0.000 N 
ATOM     11  H01 ZMR A 466      -7.106  57.011 -10.248  0.00  0.00    +0.000 HD
ATOM     12  H02 ZMR A 466      -5.466  57.411 -13.940  0.00  0.00    +0.000 HD
ATOM     13  H03 ZMR A 466      -7.178  57.687 -13.712  0.00  0.00    +0.000 HD
ATOM     14  H05 ZMR A 466      -4.186  56.702 -12.235  0.00  0.00    +0.000 HD
ENDBRANCH   3   7
BRANCH   4  15
ATOM     15  N5  ZMR A 466      -4.776  59.112  -9.704  0.00  0.00    +0.000 N 
ATOM     16  C10 ZMR A 466      -4.476  60.252 -10.333  0.00  0.00    +0.000 C 
ATOM     17  O10 ZMR A 466      -3.396  60.484 -10.837  0.00  0.00    +0.000 OA
ATOM     18  C11 ZMR A 466      -5.608  61.259 -10.397  0.00  0.00    +0.000 C 
ATOM     19  H06 ZMR A 466      -5.651  59.061  -9.202  0.00  0.00    +0.000 HD
ENDBRANCH   4  15
BRANCH   1  20
ATOM     20  C1  ZMR A 466      -2.327  54.178  -8.531  0.00  0.00    +0.000 C 
ATOM     21  O1A ZMR A 466      -1.936  54.005  -7.266  0.00  0.00    +0.000 OA
BRANCH  20  22
ATOM     22  O1B ZMR A 466      -2.148  53.386  -9.401  0.00  0.00    +0.000 OA
ATOM     23  H04 ZMR A 466      -1.259  53.031  -9.333  0.00  0.00    +0.000 HD
ENDBRANCH  20  22
ENDBRANCH   1  20
BRANCH   5  24
ATOM     24  C7  ZMR A 466      -2.773  58.838  -7.496  0.00  0.00    +0.000 C 
BRANCH  24  25
ATOM     25  O7  ZMR A 466      -2.181  58.989  -8.416  0.00  0.00    +0.000 OA
ATOM     26  H07 ZMR A 466      -2.543  59.726  -8.913  0.00  0.00    +0.000 HD
ENDBRANCH  24  25
BRANCH  24  27
ATOM     27  C8  ZMR A 466      -2.249  58.524  -6.193  0.00  0.00    +0.000 C 
BRANCH  27  28
ATOM     28  O8  ZMR A 466      -3.405  58.682  -5.366  0.00  0.00    +0.000 OA
ATOM     29  H08 ZMR A 466      -4.112  59.085  -5.876  0.00  0.00    +0.000 HD
ENDBRANCH  27  28
BRANCH  27  30
ATOM     30  C9  ZMR A 466      -1.135  59.445  -5.698  0.00  0.00    +0.000 C 
BRANCH  30  31
ATOM     31  O9  ZMR A 466       0.026  59.297  -6.515  0.00  0.00    +0.000 OA
ATOM     32  H09 ZMR A 466       0.812  59.352  -5.967  0.00  0.00    +0.000 HD
ENDBRANCH  30  31
ENDBRANCH  27  30
ENDBRANCH  24  27
ENDBRANCH   5  24
TORSDOF 10
ENDMDL
