MODEL 5
REMARK VINA RESULT:    -4.527     11.130     12.849
REMARK INTER + INTRA:          -8.182
REMARK INTER:                  -6.961
REMARK INTRA:                  -1.221
REMARK UNBOUND:                -1.539
REMARK  Name = 1A4G-ZMR.pdb
REMARK  10 active torsions:
REMARK  status: ('A' for Active; 'I' for Inactive)
REMARK    1  A    between atoms: NE_1  and  C4_10
REMARK    2  A    between atoms: C1_5  and  O1B_7
REMARK    3  A    between atoms: C1_5  and  C2_8
REMARK    4  A    between atoms: C5_11  and  N5_12
REMARK    5  A    between atoms: C6_13  and  C7_15
REMARK    6  A    between atoms: C7_15  and  O7_16
REMARK    7  A    between atoms: C7_15  and  C8_17
REMARK    8  A    between atoms: C8_17  and  O8_18
REMARK    9  A    between atoms: C8_17  and  C9_19
REMARK   10  A    between atoms: C9_19  and  O9_20
REMARK                            x       y       z     vdW  Elec       q    Type
REMARK                         _______ _______ _______ _____ _____    ______ ____
ROOT
ATOM      1  C2  ZMR A 466      11.491  50.439  13.952  0.00  0.00    +0.000 C 
ATOM      2  C3  ZMR A 466      11.894  49.317  13.334  0.00  0.00    +0.000 C 
ATOM      3  C4  ZMR A 466      11.184  48.016  13.556  0.00  0.00    +0.000 C 
ATOM      4  C5  ZMR A 466       9.853  48.198  14.191  0.00  0.00    +0.000 C 
ATOM      5  C6  ZMR A 466       9.990  49.251  15.331  0.00  0.00    +0.000 C 
ATOM      6  O6  ZMR A 466      10.486  50.479  14.806  0.00  0.00    +0.000 OA
ENDROOT
BRANCH   3   7
ATOM      7  NE  ZMR A 466      11.048  47.220  12.355  0.00  0.00    +0.000 N 
ATOM      8  CZ  ZMR A 466      11.796  46.144  12.129  0.00  0.00    +0.000 C 
ATOM      9  NH1 ZMR A 466      12.814  45.823  12.935  0.00  0.00    +0.000 NA
ATOM     10  NH2 ZMR A 466      11.467  45.349  11.115  0.00  0.00    +0.000 N 
ATOM     11  H01 ZMR A 466      13.044  46.416  13.719  0.00  0.00    +0.000 HD
ATOM     12  H02 ZMR A 466      10.682  45.582  10.525  0.00  0.00    +0.000 HD
ATOM     13  H03 ZMR A 466      12.003  44.512  10.935  0.00  0.00    +0.000 HD
ATOM     14  H05 ZMR A 466      10.361  47.491  11.665  0.00  0.00    +0.000 HD
ENDBRANCH   3   7
BRANCH   4  15
ATOM     15  N5  ZMR A 466       9.387  46.945  14.766  0.00  0.00    +0.000 N 
ATOM     16  C10 ZMR A 466       8.136  46.491  14.642  0.00  0.00    +0.000 C 
ATOM     17  O10 ZMR A 466       7.223  47.140  14.172  0.00  0.00    +0.000 OA
ATOM     18  C11 ZMR A 466       7.927  45.068  15.120  0.00  0.00    +0.000 C 
ATOM     19  H06 ZMR A 466      10.047  46.386  15.288  0.00  0.00    +0.000 HD
ENDBRANCH   4  15
BRANCH   1  20
ATOM     20  C1  ZMR A 466      12.179  51.715  13.686  0.00  0.00    +0.000 C 
ATOM     21  O1A ZMR A 466      13.337  51.925  14.316  0.00  0.00    +0.000 OA
BRANCH  20  22
ATOM     22  O1B ZMR A 466      11.671  52.492  12.941  0.00  0.00    +0.000 OA
ATOM     23  H04 ZMR A 466      10.751  52.614  13.184  0.00  0.00    +0.000 HD
ENDBRANCH  20  22
ENDBRANCH   1  20
BRANCH   5  24
ATOM     24  C7  ZMR A 466       8.793  49.481  16.241  0.00  0.00    +0.000 C 
BRANCH  24  25
ATOM     25  O7  ZMR A 466       8.292  49.875  15.339  0.00  0.00    +0.000 OA
ATOM     26  H07 ZMR A 466       8.006  50.777  15.500  0.00  0.00    +0.000 HD
ENDBRANCH  24  25
BRANCH  24  27
ATOM     27  C8  ZMR A 466       9.056  50.212  17.452  0.00  0.00    +0.000 C 
BRANCH  27  28
ATOM     28  O8  ZMR A 466       7.969  49.802  18.285  0.00  0.00    +0.000 OA
ATOM     29  H08 ZMR A 466       8.237  49.046  18.813  0.00  0.00    +0.000 HD
ENDBRANCH  27  28
BRANCH  27  30
ATOM     30  C9  ZMR A 466       9.048  51.734  17.311  0.00  0.00    +0.000 C 
BRANCH  30  31
ATOM     31  O9  ZMR A 466       7.727  52.196  17.034  0.00  0.00    +0.000 OA
ATOM     32  H09 ZMR A 466       7.110  51.464  17.106  0.00  0.00    +0.000 HD
ENDBRANCH  30  31
ENDBRANCH  27  30
ENDBRANCH  24  27
ENDBRANCH   5  24
TORSDOF 10
ENDMDL
